*SPEF "IEEE 1481-1999"
*DESIGN "c432"
*DATE "Tue Oct 25 21:41:14 2022"
*VENDOR "SYNOPSYS INC"
*PROGRAM "Synopsys Design Compiler"
*VERSION "S-2021.06-SP5-3"
*DESIGN_FLOW "SYNTHESIS"
*DIVIDER /
*DELIMITER :
*BUS_DELIMITER []
*T_UNIT 1.0 NS
*C_UNIT 0.0010 PF
*R_UNIT 1000.0 KOHM
*L_UNIT 1.0 HENRY

*PORTS

N1 I *L 0.000e+00 *S 0.000e+00 0.000e+00 
N4 I *L 0.000e+00 *S 0.000e+00 0.000e+00 
N8 I *L 0.000e+00 *S 0.000e+00 0.000e+00 
N11 I *L 0.000e+00 *S 0.000e+00 0.000e+00 
N14 I *L 0.000e+00 *S 0.000e+00 0.000e+00 
N17 I *L 0.000e+00 *S 0.000e+00 0.000e+00 
N21 I *L 0.000e+00 *S 0.000e+00 0.000e+00 
N24 I *L 0.000e+00 *S 0.000e+00 0.000e+00 
N27 I *L 0.000e+00 *S 0.000e+00 0.000e+00 
N30 I *L 0.000e+00 *S 0.000e+00 0.000e+00 
N34 I *L 0.000e+00 *S 0.000e+00 0.000e+00 
N37 I *L 0.000e+00 *S 0.000e+00 0.000e+00 
N40 I *L 0.000e+00 *S 0.000e+00 0.000e+00 
N43 I *L 0.000e+00 *S 0.000e+00 0.000e+00 
N47 I *L 0.000e+00 *S 0.000e+00 0.000e+00 
N50 I *L 0.000e+00 *S 0.000e+00 0.000e+00 
N53 I *L 0.000e+00 *S 0.000e+00 0.000e+00 
N56 I *L 0.000e+00 *S 0.000e+00 0.000e+00 
N60 I *L 0.000e+00 *S 0.000e+00 0.000e+00 
N63 I *L 0.000e+00 *S 0.000e+00 0.000e+00 
N66 I *L 0.000e+00 *S 0.000e+00 0.000e+00 
N69 I *L 0.000e+00 *S 0.000e+00 0.000e+00 
N73 I *L 0.000e+00 *S 0.000e+00 0.000e+00 
N76 I *L 0.000e+00 *S 0.000e+00 0.000e+00 
N79 I *L 0.000e+00 *S 0.000e+00 0.000e+00 
N82 I *L 0.000e+00 *S 0.000e+00 0.000e+00 
N86 I *L 0.000e+00 *S 0.000e+00 0.000e+00 
N89 I *L 0.000e+00 *S 0.000e+00 0.000e+00 
N92 I *L 0.000e+00 *S 0.000e+00 0.000e+00 
N95 I *L 0.000e+00 *S 0.000e+00 0.000e+00 
N99 I *L 0.000e+00 *S 0.000e+00 0.000e+00 
N102 I *L 0.000e+00 *S 0.000e+00 0.000e+00 
N105 I *L 0.000e+00 *S 0.000e+00 0.000e+00 
N108 I *L 0.000e+00 *S 0.000e+00 0.000e+00 
N112 I *L 0.000e+00 *S 0.000e+00 0.000e+00 
N115 I *L 0.000e+00 *S 0.000e+00 0.000e+00 
N223 O *L 0.000e+00 *S 0.000e+00 0.000e+00 
N329 O *L 0.000e+00 *S 0.000e+00 0.000e+00 
N370 O *L 0.000e+00 *S 0.000e+00 0.000e+00 
N421 O *L 0.000e+00 *S 0.000e+00 0.000e+00 
N430 O *L 0.000e+00 *S 0.000e+00 0.000e+00 
N431 O *L 0.000e+00 *S 0.000e+00 0.000e+00 
N432 O *L 0.000e+00 *S 0.000e+00 0.000e+00 

*R_NET N0 2.433e-01
*DRIVER NAND2_19:Z
*CELL GTECH_AND2
*C2_R1_C1 1.216e-01 1.881e-02 1.216e-01 
*LOADS
*RC I_0:A 4.575e-03
*END

*R_NET N2 2.433e-01
*DRIVER NAND2_22:Z
*CELL GTECH_AND2
*C2_R1_C1 1.216e-01 1.881e-02 1.216e-01 
*LOADS
*RC I_1:A 4.575e-03
*END

*R_NET N3 2.433e-01
*DRIVER NAND2_23:Z
*CELL GTECH_AND2
*C2_R1_C1 1.216e-01 1.881e-02 1.216e-01 
*LOADS
*RC I_2:A 4.575e-03
*END

*R_NET N5 2.433e-01
*DRIVER NAND2_24:Z
*CELL GTECH_AND2
*C2_R1_C1 1.216e-01 1.881e-02 1.216e-01 
*LOADS
*RC I_3:A 4.575e-03
*END

*R_NET N6 2.433e-01
*DRIVER NAND2_25:Z
*CELL GTECH_AND2
*C2_R1_C1 1.216e-01 1.881e-02 1.216e-01 
*LOADS
*RC I_4:A 4.575e-03
*END

*R_NET N7 2.433e-01
*DRIVER NAND2_26:Z
*CELL GTECH_AND2
*C2_R1_C1 1.216e-01 1.881e-02 1.216e-01 
*LOADS
*RC I_5:A 4.575e-03
*END

*R_NET N9 2.433e-01
*DRIVER NAND2_27:Z
*CELL GTECH_AND2
*C2_R1_C1 1.216e-01 1.881e-02 1.216e-01 
*LOADS
*RC I_6:A 4.575e-03
*END

*R_NET N10 2.433e-01
*DRIVER NAND2_28:Z
*CELL GTECH_AND2
*C2_R1_C1 1.216e-01 1.881e-02 1.216e-01 
*LOADS
*RC I_7:A 4.575e-03
*END

*R_NET N12 2.433e-01
*DRIVER NAND2_29:Z
*CELL GTECH_AND2
*C2_R1_C1 1.216e-01 1.881e-02 1.216e-01 
*LOADS
*RC I_8:A 4.575e-03
*END

*R_NET N13 2.433e-01
*DRIVER NAND2_56:Z
*CELL GTECH_AND2
*C2_R1_C1 1.216e-01 1.881e-02 1.216e-01 
*LOADS
*RC I_9:A 4.575e-03
*END

*R_NET N15 2.433e-01
*DRIVER NAND2_58:Z
*CELL GTECH_AND2
*C2_R1_C1 1.216e-01 1.881e-02 1.216e-01 
*LOADS
*RC I_10:A 4.575e-03
*END

*R_NET N16 2.433e-01
*DRIVER NAND2_60:Z
*CELL GTECH_AND2
*C2_R1_C1 1.216e-01 1.881e-02 1.216e-01 
*LOADS
*RC I_11:A 4.575e-03
*END

*R_NET N18 2.433e-01
*DRIVER NAND2_62:Z
*CELL GTECH_AND2
*C2_R1_C1 1.216e-01 1.881e-02 1.216e-01 
*LOADS
*RC I_12:A 4.575e-03
*END

*R_NET N19 2.433e-01
*DRIVER NAND2_63:Z
*CELL GTECH_AND2
*C2_R1_C1 1.216e-01 1.881e-02 1.216e-01 
*LOADS
*RC I_13:A 4.575e-03
*END

*R_NET N20 2.433e-01
*DRIVER NAND2_64:Z
*CELL GTECH_AND2
*C2_R1_C1 1.216e-01 1.881e-02 1.216e-01 
*LOADS
*RC I_14:A 4.575e-03
*END

*R_NET N22 2.433e-01
*DRIVER NAND2_65:Z
*CELL GTECH_AND2
*C2_R1_C1 1.216e-01 1.881e-02 1.216e-01 
*LOADS
*RC I_15:A 4.575e-03
*END

*R_NET N23 2.433e-01
*DRIVER NAND2_66:Z
*CELL GTECH_AND2
*C2_R1_C1 1.216e-01 1.881e-02 1.216e-01 
*LOADS
*RC I_16:A 4.575e-03
*END

*R_NET N25 2.433e-01
*DRIVER NAND2_67:Z
*CELL GTECH_AND2
*C2_R1_C1 1.216e-01 1.881e-02 1.216e-01 
*LOADS
*RC I_17:A 4.575e-03
*END

*R_NET N26 2.433e-01
*DRIVER NAND2_68:Z
*CELL GTECH_AND2
*C2_R1_C1 1.216e-01 1.881e-02 1.216e-01 
*LOADS
*RC I_18:A 4.575e-03
*END

*R_NET N28 2.433e-01
*DRIVER NAND2_69:Z
*CELL GTECH_AND2
*C2_R1_C1 1.216e-01 1.881e-02 1.216e-01 
*LOADS
*RC I_19:A 4.575e-03
*END

*R_NET N29 2.433e-01
*DRIVER NAND2_70:Z
*CELL GTECH_AND2
*C2_R1_C1 1.216e-01 1.881e-02 1.216e-01 
*LOADS
*RC I_20:A 4.575e-03
*END

*R_NET N31 2.433e-01
*DRIVER NAND2_71:Z
*CELL GTECH_AND2
*C2_R1_C1 1.216e-01 1.881e-02 1.216e-01 
*LOADS
*RC I_21:A 4.575e-03
*END

*R_NET N32 2.433e-01
*DRIVER NAND2_72:Z
*CELL GTECH_AND2
*C2_R1_C1 1.216e-01 1.881e-02 1.216e-01 
*LOADS
*RC I_22:A 4.575e-03
*END

*R_NET N33 2.433e-01
*DRIVER NAND2_73:Z
*CELL GTECH_AND2
*C2_R1_C1 1.216e-01 1.881e-02 1.216e-01 
*LOADS
*RC I_23:A 4.575e-03
*END

*R_NET N35 2.433e-01
*DRIVER NAND2_74:Z
*CELL GTECH_AND2
*C2_R1_C1 1.216e-01 1.881e-02 1.216e-01 
*LOADS
*RC I_24:A 4.575e-03
*END

*R_NET N36 2.433e-01
*DRIVER NAND2_75:Z
*CELL GTECH_AND2
*C2_R1_C1 1.216e-01 1.881e-02 1.216e-01 
*LOADS
*RC I_25:A 4.575e-03
*END

*R_NET N38 2.433e-01
*DRIVER NAND2_76:Z
*CELL GTECH_AND2
*C2_R1_C1 1.216e-01 1.881e-02 1.216e-01 
*LOADS
*RC I_26:A 4.575e-03
*END

*R_NET N39 2.433e-01
*DRIVER NAND2_77:Z
*CELL GTECH_AND2
*C2_R1_C1 1.216e-01 1.881e-02 1.216e-01 
*LOADS
*RC I_27:A 4.575e-03
*END

*R_NET N41 2.433e-01
*DRIVER NAND2_78:Z
*CELL GTECH_AND2
*C2_R1_C1 1.216e-01 1.881e-02 1.216e-01 
*LOADS
*RC I_28:A 4.575e-03
*END

*R_NET N42 2.433e-01
*DRIVER NAND2_79:Z
*CELL GTECH_AND2
*C2_R1_C1 1.216e-01 1.881e-02 1.216e-01 
*LOADS
*RC I_29:A 4.575e-03
*END

*R_NET N44 2.433e-01
*DRIVER NAND2_80:Z
*CELL GTECH_AND2
*C2_R1_C1 1.216e-01 1.881e-02 1.216e-01 
*LOADS
*RC I_30:A 4.575e-03
*END

*R_NET N45 2.433e-01
*DRIVER NAND2_81:Z
*CELL GTECH_AND2
*C2_R1_C1 1.216e-01 1.881e-02 1.216e-01 
*LOADS
*RC I_31:A 4.575e-03
*END

*R_NET N46 2.433e-01
*DRIVER NAND2_82:Z
*CELL GTECH_AND2
*C2_R1_C1 1.216e-01 1.881e-02 1.216e-01 
*LOADS
*RC I_32:A 4.575e-03
*END

*R_NET N48 2.433e-01
*DRIVER NAND2_83:Z
*CELL GTECH_AND2
*C2_R1_C1 1.216e-01 1.881e-02 1.216e-01 
*LOADS
*RC I_33:A 4.575e-03
*END

*R_NET N49 2.433e-01
*DRIVER NAND2_84:Z
*CELL GTECH_AND2
*C2_R1_C1 1.216e-01 1.881e-02 1.216e-01 
*LOADS
*RC I_34:A 4.575e-03
*END

*R_NET N51 2.433e-01
*DRIVER NAND2_85:Z
*CELL GTECH_AND2
*C2_R1_C1 1.216e-01 1.881e-02 1.216e-01 
*LOADS
*RC I_35:A 4.575e-03
*END

*R_NET N52 2.433e-01
*DRIVER NAND2_103:Z
*CELL GTECH_AND2
*C2_R1_C1 1.216e-01 1.881e-02 1.216e-01 
*LOADS
*RC I_36:A 4.575e-03
*END

*R_NET N54 2.433e-01
*DRIVER NAND2_105:Z
*CELL GTECH_AND2
*C2_R1_C1 1.216e-01 1.881e-02 1.216e-01 
*LOADS
*RC I_37:A 4.575e-03
*END

*R_NET N55 2.433e-01
*DRIVER NAND2_107:Z
*CELL GTECH_AND2
*C2_R1_C1 1.216e-01 1.881e-02 1.216e-01 
*LOADS
*RC I_38:A 4.575e-03
*END

*R_NET N57 2.433e-01
*DRIVER NAND2_109:Z
*CELL GTECH_AND2
*C2_R1_C1 1.216e-01 1.881e-02 1.216e-01 
*LOADS
*RC I_39:A 4.575e-03
*END

*R_NET N58 2.433e-01
*DRIVER NAND2_111:Z
*CELL GTECH_AND2
*C2_R1_C1 1.216e-01 1.881e-02 1.216e-01 
*LOADS
*RC I_40:A 4.575e-03
*END

*R_NET N59 2.433e-01
*DRIVER NAND2_113:Z
*CELL GTECH_AND2
*C2_R1_C1 1.216e-01 1.881e-02 1.216e-01 
*LOADS
*RC I_41:A 4.575e-03
*END

*R_NET N61 2.433e-01
*DRIVER NAND2_114:Z
*CELL GTECH_AND2
*C2_R1_C1 1.216e-01 1.881e-02 1.216e-01 
*LOADS
*RC I_42:A 4.575e-03
*END

*R_NET N62 2.433e-01
*DRIVER NAND2_115:Z
*CELL GTECH_AND2
*C2_R1_C1 1.216e-01 1.881e-02 1.216e-01 
*LOADS
*RC I_43:A 4.575e-03
*END

*R_NET N64 2.433e-01
*DRIVER NAND2_116:Z
*CELL GTECH_AND2
*C2_R1_C1 1.216e-01 1.881e-02 1.216e-01 
*LOADS
*RC I_44:A 4.575e-03
*END

*R_NET N65 2.433e-01
*DRIVER NAND2_117:Z
*CELL GTECH_AND2
*C2_R1_C1 1.216e-01 1.881e-02 1.216e-01 
*LOADS
*RC I_45:A 4.575e-03
*END

*R_NET N67 2.433e-01
*DRIVER NAND2_118:Z
*CELL GTECH_AND2
*C2_R1_C1 1.216e-01 1.881e-02 1.216e-01 
*LOADS
*RC I_46:A 4.575e-03
*END

*R_NET N68 2.433e-01
*DRIVER NAND2_119:Z
*CELL GTECH_AND2
*C2_R1_C1 1.216e-01 1.881e-02 1.216e-01 
*LOADS
*RC I_47:A 4.575e-03
*END

*R_NET N70 2.433e-01
*DRIVER NAND2_120:Z
*CELL GTECH_AND2
*C2_R1_C1 1.216e-01 1.881e-02 1.216e-01 
*LOADS
*RC I_48:A 4.575e-03
*END

*R_NET N71 2.433e-01
*DRIVER NAND2_121:Z
*CELL GTECH_AND2
*C2_R1_C1 1.216e-01 1.881e-02 1.216e-01 
*LOADS
*RC I_49:A 4.575e-03
*END

*R_NET N72 2.433e-01
*DRIVER NAND2_122:Z
*CELL GTECH_AND2
*C2_R1_C1 1.216e-01 1.881e-02 1.216e-01 
*LOADS
*RC I_50:A 4.575e-03
*END

*R_NET N74 2.433e-01
*DRIVER NAND2_123:Z
*CELL GTECH_AND2
*C2_R1_C1 1.216e-01 1.881e-02 1.216e-01 
*LOADS
*RC I_51:A 4.575e-03
*END

*R_NET N75 2.433e-01
*DRIVER NAND2_124:Z
*CELL GTECH_AND2
*C2_R1_C1 1.216e-01 1.881e-02 1.216e-01 
*LOADS
*RC I_52:A 4.575e-03
*END

*R_NET N77 2.433e-01
*DRIVER NAND2_125:Z
*CELL GTECH_AND2
*C2_R1_C1 1.216e-01 1.881e-02 1.216e-01 
*LOADS
*RC I_53:A 4.575e-03
*END

*R_NET N78 2.433e-01
*DRIVER NAND2_129:Z
*CELL GTECH_AND2
*C2_R1_C1 1.216e-01 1.881e-02 1.216e-01 
*LOADS
*RC I_54:A 4.575e-03
*END

*R_NET N80 2.433e-01
*DRIVER NAND2_130:Z
*CELL GTECH_AND2
*C2_R1_C1 1.216e-01 1.881e-02 1.216e-01 
*LOADS
*RC I_55:A 4.575e-03
*END

*R_NET N81 2.433e-01
*DRIVER NAND2_131:Z
*CELL GTECH_AND2
*C2_R1_C1 1.216e-01 1.881e-02 1.216e-01 
*LOADS
*RC I_56:A 4.575e-03
*END

*R_NET N83 2.433e-01
*DRIVER NAND2_132:Z
*CELL GTECH_AND2
*C2_R1_C1 1.216e-01 1.881e-02 1.216e-01 
*LOADS
*RC I_57:A 4.575e-03
*END

*R_NET N84 2.433e-01
*DRIVER NAND2_133:Z
*CELL GTECH_AND2
*C2_R1_C1 1.216e-01 1.881e-02 1.216e-01 
*LOADS
*RC I_58:A 4.575e-03
*END

*R_NET N85 2.433e-01
*DRIVER NAND2_134:Z
*CELL GTECH_AND2
*C2_R1_C1 1.216e-01 1.881e-02 1.216e-01 
*LOADS
*RC I_59:A 4.575e-03
*END

*R_NET N87 2.433e-01
*DRIVER NAND2_135:Z
*CELL GTECH_AND2
*C2_R1_C1 1.216e-01 1.881e-02 1.216e-01 
*LOADS
*RC I_60:A 4.575e-03
*END

*R_NET N88 2.433e-01
*DRIVER NAND2_136:Z
*CELL GTECH_AND2
*C2_R1_C1 1.216e-01 1.881e-02 1.216e-01 
*LOADS
*RC I_61:A 4.575e-03
*END

*R_NET N90 2.433e-01
*DRIVER NAND2_137:Z
*CELL GTECH_AND2
*C2_R1_C1 1.216e-01 1.881e-02 1.216e-01 
*LOADS
*RC I_62:A 4.575e-03
*END

*R_NET N91 2.433e-01
*DRIVER NAND2_154:Z
*CELL GTECH_AND2
*C2_R1_C1 1.216e-01 1.881e-02 1.216e-01 
*LOADS
*RC I_63:A 4.575e-03
*END

*R_NET N93 2.433e-01
*DRIVER NAND3_156:Z
*CELL GTECH_AND3
*C2_R1_C1 1.216e-01 1.881e-02 1.216e-01 
*LOADS
*RC I_64:A 4.575e-03
*END

*R_NET N94 2.433e-01
*DRIVER NAND4_138:Z
*CELL GTECH_AND4
*C2_R1_C1 1.216e-01 1.881e-02 1.216e-01 
*LOADS
*RC I_65:A 4.575e-03
*END

*R_NET N96 2.433e-01
*DRIVER NAND4_139:Z
*CELL GTECH_AND4
*C2_R1_C1 1.216e-01 1.881e-02 1.216e-01 
*LOADS
*RC I_66:A 4.575e-03
*END

*R_NET N97 2.433e-01
*DRIVER NAND4_140:Z
*CELL GTECH_AND4
*C2_R1_C1 1.216e-01 1.881e-02 1.216e-01 
*LOADS
*RC I_67:A 4.575e-03
*END

*R_NET N98 2.433e-01
*DRIVER NAND4_141:Z
*CELL GTECH_AND4
*C2_R1_C1 1.216e-01 1.881e-02 1.216e-01 
*LOADS
*RC I_68:A 4.575e-03
*END

*R_NET N100 2.433e-01
*DRIVER NAND4_142:Z
*CELL GTECH_AND4
*C2_R1_C1 1.216e-01 1.881e-02 1.216e-01 
*LOADS
*RC I_69:A 4.575e-03
*END

*R_NET N101 2.433e-01
*DRIVER NAND4_143:Z
*CELL GTECH_AND4
*C2_R1_C1 1.216e-01 1.881e-02 1.216e-01 
*LOADS
*RC I_70:A 4.575e-03
*END

*R_NET N103 2.433e-01
*DRIVER NAND4_144:Z
*CELL GTECH_AND4
*C2_R1_C1 1.216e-01 1.881e-02 1.216e-01 
*LOADS
*RC I_71:A 4.575e-03
*END

*R_NET N104 2.433e-01
*DRIVER NAND4_145:Z
*CELL GTECH_AND4
*C2_R1_C1 1.216e-01 1.881e-02 1.216e-01 
*LOADS
*RC I_72:A 4.575e-03
*END

*R_NET N106 2.433e-01
*DRIVER NAND4_146:Z
*CELL GTECH_AND4
*C2_R1_C1 1.216e-01 1.881e-02 1.216e-01 
*LOADS
*RC I_73:A 4.575e-03
*END

*R_NET N107 2.433e-01
*DRIVER NAND4_155:Z
*CELL GTECH_AND4
*C2_R1_C1 1.216e-01 1.881e-02 1.216e-01 
*LOADS
*RC I_74:A 4.575e-03
*END

*R_NET N109 2.433e-01
*DRIVER NAND4_157:Z
*CELL GTECH_AND4
*C2_R1_C1 1.216e-01 1.881e-02 1.216e-01 
*LOADS
*RC I_75:A 4.575e-03
*END

*R_NET N110 2.433e-01
*DRIVER NAND4_158:Z
*CELL GTECH_AND4
*C2_R1_C1 1.216e-01 1.881e-02 1.216e-01 
*LOADS
*RC I_76:A 4.575e-03
*END

*R_NET N111 2.433e-01
*DRIVER NAND4_159:Z
*CELL GTECH_AND4
*C2_R1_C1 1.216e-01 1.881e-02 1.216e-01 
*LOADS
*RC I_77:A 4.575e-03
*END

*R_NET N113 2.433e-01
*DRIVER NAND4_160:Z
*CELL GTECH_AND4
*C2_R1_C1 1.216e-01 1.881e-02 1.216e-01 
*LOADS
*RC I_78:A 4.575e-03
*END

*R_NET N114 2.433e-01
*DRIVER I_79:Z
*CELL GTECH_NOT
*C2_R1_C1 1.216e-01 1.881e-02 1.216e-01 
*LOADS
*RC NOR2_20:A 4.575e-03
*END

*R_NET N116 2.433e-01
*DRIVER I_80:Z
*CELL GTECH_NOT
*C2_R1_C1 1.216e-01 1.881e-02 1.216e-01 
*LOADS
*RC NOR2_20:B 4.575e-03
*END

*R_NET N117 2.433e-01
*DRIVER I_81:Z
*CELL GTECH_NOT
*C2_R1_C1 1.216e-01 1.881e-02 1.216e-01 
*LOADS
*RC NOR2_21:A 4.575e-03
*END

*R_NET N120 2.433e-01
*DRIVER I_82:Z
*CELL GTECH_NOT
*C2_R1_C1 1.216e-01 1.881e-02 1.216e-01 
*LOADS
*RC NOR2_21:B 4.575e-03
*END

*R_NET N121 2.433e-01
*DRIVER I_83:Z
*CELL GTECH_NOT
*C2_R1_C1 1.216e-01 1.881e-02 1.216e-01 
*LOADS
*RC NOR2_30:A 4.575e-03
*END

*R_NET N124 2.433e-01
*DRIVER I_84:Z
*CELL GTECH_NOT
*C2_R1_C1 1.216e-01 1.881e-02 1.216e-01 
*LOADS
*RC NOR2_30:B 4.575e-03
*END

*R_NET N125 2.433e-01
*DRIVER I_85:Z
*CELL GTECH_NOT
*C2_R1_C1 1.216e-01 1.881e-02 1.216e-01 
*LOADS
*RC NOR2_31:A 4.575e-03
*END

*R_NET N128 2.433e-01
*DRIVER I_86:Z
*CELL GTECH_NOT
*C2_R1_C1 1.216e-01 1.881e-02 1.216e-01 
*LOADS
*RC NOR2_31:B 4.575e-03
*END

*R_NET N129 2.433e-01
*DRIVER I_87:Z
*CELL GTECH_NOT
*C2_R1_C1 1.216e-01 1.881e-02 1.216e-01 
*LOADS
*RC NOR2_32:A 4.575e-03
*END

*R_NET N132 2.433e-01
*DRIVER I_88:Z
*CELL GTECH_NOT
*C2_R1_C1 1.216e-01 1.881e-02 1.216e-01 
*LOADS
*RC NOR2_32:B 4.575e-03
*END

*R_NET N133 2.433e-01
*DRIVER I_89:Z
*CELL GTECH_NOT
*C2_R1_C1 1.216e-01 1.881e-02 1.216e-01 
*LOADS
*RC NOR2_33:A 4.575e-03
*END

*R_NET N136 2.433e-01
*DRIVER I_90:Z
*CELL GTECH_NOT
*C2_R1_C1 1.216e-01 1.881e-02 1.216e-01 
*LOADS
*RC NOR2_33:B 4.575e-03
*END

*R_NET N137 2.433e-01
*DRIVER I_91:Z
*CELL GTECH_NOT
*C2_R1_C1 1.216e-01 1.881e-02 1.216e-01 
*LOADS
*RC NOR2_34:A 4.575e-03
*END

*R_NET N140 2.433e-01
*DRIVER I_92:Z
*CELL GTECH_NOT
*C2_R1_C1 1.216e-01 1.881e-02 1.216e-01 
*LOADS
*RC NOR2_34:B 4.575e-03
*END

*R_NET N141 2.433e-01
*DRIVER I_93:Z
*CELL GTECH_NOT
*C2_R1_C1 1.216e-01 1.881e-02 1.216e-01 
*LOADS
*RC NOR2_35:A 4.575e-03
*END

*R_NET N144 2.433e-01
*DRIVER I_94:Z
*CELL GTECH_NOT
*C2_R1_C1 1.216e-01 1.881e-02 1.216e-01 
*LOADS
*RC NOR2_35:B 4.575e-03
*END

*R_NET N145 2.433e-01
*DRIVER I_95:Z
*CELL GTECH_NOT
*C2_R1_C1 1.216e-01 1.881e-02 1.216e-01 
*LOADS
*RC NOR2_36:A 4.575e-03
*END

*R_NET N148 2.433e-01
*DRIVER I_96:Z
*CELL GTECH_NOT
*C2_R1_C1 1.216e-01 1.881e-02 1.216e-01 
*LOADS
*RC NOR2_36:B 4.575e-03
*END

*R_NET N149 2.433e-01
*DRIVER I_97:Z
*CELL GTECH_NOT
*C2_R1_C1 1.216e-01 1.881e-02 1.216e-01 
*LOADS
*RC NOR2_37:A 4.575e-03
*END

*R_NET N152 2.433e-01
*DRIVER I_98:Z
*CELL GTECH_NOT
*C2_R1_C1 1.216e-01 1.881e-02 1.216e-01 
*LOADS
*RC NOR2_37:B 4.575e-03
*END

*R_NET N153 2.433e-01
*DRIVER I_99:Z
*CELL GTECH_NOT
*C2_R1_C1 1.216e-01 1.881e-02 1.216e-01 
*LOADS
*RC NOR2_38:A 4.575e-03
*END

*R_NET N155 2.433e-01
*DRIVER I_100:Z
*CELL GTECH_NOT
*C2_R1_C1 1.216e-01 1.881e-02 1.216e-01 
*LOADS
*RC NOR2_38:B 4.575e-03
*END

*R_NET N156 2.433e-01
*DRIVER I_101:Z
*CELL GTECH_NOT
*C2_R1_C1 1.216e-01 1.881e-02 1.216e-01 
*LOADS
*RC NOR2_39:A 4.575e-03
*END

*R_NET N160 2.433e-01
*DRIVER I_102:Z
*CELL GTECH_NOT
*C2_R1_C1 1.216e-01 1.881e-02 1.216e-01 
*LOADS
*RC NOR2_39:B 4.575e-03
*END

*R_NET N161 2.433e-01
*DRIVER I_103:Z
*CELL GTECH_NOT
*C2_R1_C1 1.216e-01 1.881e-02 1.216e-01 
*LOADS
*RC NOR2_40:A 4.575e-03
*END

*R_NET N163 2.433e-01
*DRIVER I_104:Z
*CELL GTECH_NOT
*C2_R1_C1 1.216e-01 1.881e-02 1.216e-01 
*LOADS
*RC NOR2_40:B 4.575e-03
*END

*R_NET N164 2.433e-01
*DRIVER I_105:Z
*CELL GTECH_NOT
*C2_R1_C1 1.216e-01 1.881e-02 1.216e-01 
*LOADS
*RC NOR2_41:A 4.575e-03
*END

*R_NET N166 2.433e-01
*DRIVER I_106:Z
*CELL GTECH_NOT
*C2_R1_C1 1.216e-01 1.881e-02 1.216e-01 
*LOADS
*RC NOR2_41:B 4.575e-03
*END

*R_NET N167 2.433e-01
*DRIVER I_107:Z
*CELL GTECH_NOT
*C2_R1_C1 1.216e-01 1.881e-02 1.216e-01 
*LOADS
*RC NOR2_42:A 4.575e-03
*END

*R_NET N169 2.433e-01
*DRIVER I_108:Z
*CELL GTECH_NOT
*C2_R1_C1 1.216e-01 1.881e-02 1.216e-01 
*LOADS
*RC NOR2_42:B 4.575e-03
*END

*R_NET N170 2.433e-01
*DRIVER I_109:Z
*CELL GTECH_NOT
*C2_R1_C1 1.216e-01 1.881e-02 1.216e-01 
*LOADS
*RC NOR2_43:A 4.575e-03
*END

*R_NET N172 2.433e-01
*DRIVER I_110:Z
*CELL GTECH_NOT
*C2_R1_C1 1.216e-01 1.881e-02 1.216e-01 
*LOADS
*RC NOR2_43:B 4.575e-03
*END

*R_NET N173 2.433e-01
*DRIVER I_111:Z
*CELL GTECH_NOT
*C2_R1_C1 1.216e-01 1.881e-02 1.216e-01 
*LOADS
*RC NOR2_44:A 4.575e-03
*END

*R_NET N175 2.433e-01
*DRIVER I_112:Z
*CELL GTECH_NOT
*C2_R1_C1 1.216e-01 1.881e-02 1.216e-01 
*LOADS
*RC NOR2_44:B 4.575e-03
*END

*R_NET N176 2.433e-01
*DRIVER I_113:Z
*CELL GTECH_NOT
*C2_R1_C1 1.216e-01 1.881e-02 1.216e-01 
*LOADS
*RC NOR2_45:A 4.575e-03
*END

*R_NET N178 2.433e-01
*DRIVER I_114:Z
*CELL GTECH_NOT
*C2_R1_C1 1.216e-01 1.881e-02 1.216e-01 
*LOADS
*RC NOR2_45:B 4.575e-03
*END

*R_NET N179 2.433e-01
*DRIVER I_115:Z
*CELL GTECH_NOT
*C2_R1_C1 1.216e-01 1.881e-02 1.216e-01 
*LOADS
*RC NOR2_153:A 4.575e-03
*END

*R_NET N181 2.433e-01
*DRIVER I_116:Z
*CELL GTECH_NOT
*C2_R1_C1 1.216e-01 1.881e-02 1.216e-01 
*LOADS
*RC NOR2_153:B 4.575e-03
*END

*R_NET N1 5.436e-01
*DRIVER N1
*CELL NULL
*C2_R1_C1 2.718e-01 4.203e-02 2.718e-01 
*LOADS
*RC I_117:A 2.285e-02
*RC NAND2_56:A 2.285e-02
*END

*R_NET N4 8.629e-01
*DRIVER N4
*CELL NULL
*C2_R1_C1 4.314e-01 6.672e-02 4.314e-01 
*LOADS
*RC I_118:A 5.757e-02
*RC NAND4_138:A 5.757e-02
*RC NAND2_19:B 5.757e-02
*END

*R_NET N8 5.436e-01
*DRIVER N8
*CELL NULL
*C2_R1_C1 2.718e-01 4.203e-02 2.718e-01 
*LOADS
*RC I_79:A 2.285e-02
*RC NAND2_103:A 2.285e-02
*END

*R_NET N11 5.436e-01
*DRIVER N11
*CELL NULL
*C2_R1_C1 2.718e-01 4.203e-02 2.718e-01 
*LOADS
*RC I_119:A 2.285e-02
*RC NAND2_58:B 2.285e-02
*END

*R_NET N14 5.436e-01
*DRIVER N14
*CELL NULL
*C2_R1_C1 2.718e-01 4.203e-02 2.718e-01 
*LOADS
*RC I_81:A 2.285e-02
*RC NAND2_129:A 2.285e-02
*END

*R_NET N17 8.629e-01
*DRIVER N17
*CELL NULL
*C2_R1_C1 4.314e-01 6.672e-02 4.314e-01 
*LOADS
*RC I_120:A 5.757e-02
*RC NAND4_139:D 5.757e-02
*RC NAND2_22:B 5.757e-02
*END

*R_NET N21 5.436e-01
*DRIVER N21
*CELL NULL
*C2_R1_C1 2.718e-01 4.203e-02 2.718e-01 
*LOADS
*RC I_83:A 2.285e-02
*RC NAND2_105:B 2.285e-02
*END

*R_NET N24 5.436e-01
*DRIVER N24
*CELL NULL
*C2_R1_C1 2.718e-01 4.203e-02 2.718e-01 
*LOADS
*RC I_121:A 2.285e-02
*RC NAND2_60:B 2.285e-02
*END

*R_NET N27 5.436e-01
*DRIVER N27
*CELL NULL
*C2_R1_C1 2.718e-01 4.203e-02 2.718e-01 
*LOADS
*RC I_85:A 2.285e-02
*RC NAND2_130:B 2.285e-02
*END

*R_NET N30 8.629e-01
*DRIVER N30
*CELL NULL
*C2_R1_C1 4.314e-01 6.672e-02 4.314e-01 
*LOADS
*RC I_122:A 5.757e-02
*RC NAND4_140:D 5.757e-02
*RC NAND2_23:B 5.757e-02
*END

*R_NET N34 5.436e-01
*DRIVER N34
*CELL NULL
*C2_R1_C1 2.718e-01 4.203e-02 2.718e-01 
*LOADS
*RC I_87:A 2.285e-02
*RC NAND2_107:B 2.285e-02
*END

*R_NET N37 5.436e-01
*DRIVER N37
*CELL NULL
*C2_R1_C1 2.718e-01 4.203e-02 2.718e-01 
*LOADS
*RC I_123:A 2.285e-02
*RC NAND2_62:B 2.285e-02
*END

*R_NET N40 5.436e-01
*DRIVER N40
*CELL NULL
*C2_R1_C1 2.718e-01 4.203e-02 2.718e-01 
*LOADS
*RC I_89:A 2.285e-02
*RC NAND2_131:B 2.285e-02
*END

*R_NET N43 8.629e-01
*DRIVER N43
*CELL NULL
*C2_R1_C1 4.314e-01 6.672e-02 4.314e-01 
*LOADS
*RC I_124:A 5.757e-02
*RC NAND4_141:D 5.757e-02
*RC NAND2_24:B 5.757e-02
*END

*R_NET N47 5.436e-01
*DRIVER N47
*CELL NULL
*C2_R1_C1 2.718e-01 4.203e-02 2.718e-01 
*LOADS
*RC I_91:A 2.285e-02
*RC NAND2_109:B 2.285e-02
*END

*R_NET N50 5.436e-01
*DRIVER N50
*CELL NULL
*C2_R1_C1 2.718e-01 4.203e-02 2.718e-01 
*LOADS
*RC I_125:A 2.285e-02
*RC NAND2_63:B 2.285e-02
*END

*R_NET N53 5.436e-01
*DRIVER N53
*CELL NULL
*C2_R1_C1 2.718e-01 4.203e-02 2.718e-01 
*LOADS
*RC I_93:A 2.285e-02
*RC NAND2_132:B 2.285e-02
*END

*R_NET N56 8.629e-01
*DRIVER N56
*CELL NULL
*C2_R1_C1 4.314e-01 6.672e-02 4.314e-01 
*LOADS
*RC I_126:A 5.757e-02
*RC NAND4_142:D 5.757e-02
*RC NAND2_25:B 5.757e-02
*END

*R_NET N60 5.436e-01
*DRIVER N60
*CELL NULL
*C2_R1_C1 2.718e-01 4.203e-02 2.718e-01 
*LOADS
*RC I_95:A 2.285e-02
*RC NAND2_111:B 2.285e-02
*END

*R_NET N63 5.436e-01
*DRIVER N63
*CELL NULL
*C2_R1_C1 2.718e-01 4.203e-02 2.718e-01 
*LOADS
*RC I_127:A 2.285e-02
*RC NAND2_64:B 2.285e-02
*END

*R_NET N66 5.436e-01
*DRIVER N66
*CELL NULL
*C2_R1_C1 2.718e-01 4.203e-02 2.718e-01 
*LOADS
*RC I_97:A 2.285e-02
*RC NAND2_133:B 2.285e-02
*END

*R_NET N69 8.629e-01
*DRIVER N69
*CELL NULL
*C2_R1_C1 4.314e-01 6.672e-02 4.314e-01 
*LOADS
*RC I_128:A 5.757e-02
*RC NAND4_143:D 5.757e-02
*RC NAND2_26:B 5.757e-02
*END

*R_NET N73 5.436e-01
*DRIVER N73
*CELL NULL
*C2_R1_C1 2.718e-01 4.203e-02 2.718e-01 
*LOADS
*RC I_99:A 2.285e-02
*RC NAND2_113:B 2.285e-02
*END

*R_NET N76 5.436e-01
*DRIVER N76
*CELL NULL
*C2_R1_C1 2.718e-01 4.203e-02 2.718e-01 
*LOADS
*RC I_129:A 2.285e-02
*RC NAND2_65:B 2.285e-02
*END

*R_NET N79 5.436e-01
*DRIVER N79
*CELL NULL
*C2_R1_C1 2.718e-01 4.203e-02 2.718e-01 
*LOADS
*RC I_101:A 2.285e-02
*RC NAND2_134:B 2.285e-02
*END

*R_NET N82 8.629e-01
*DRIVER N82
*CELL NULL
*C2_R1_C1 4.314e-01 6.672e-02 4.314e-01 
*LOADS
*RC I_130:A 5.757e-02
*RC NAND4_144:D 5.757e-02
*RC NAND2_27:B 5.757e-02
*END

*R_NET N86 5.436e-01
*DRIVER N86
*CELL NULL
*C2_R1_C1 2.718e-01 4.203e-02 2.718e-01 
*LOADS
*RC I_103:A 2.285e-02
*RC NAND2_114:B 2.285e-02
*END

*R_NET N89 5.436e-01
*DRIVER N89
*CELL NULL
*C2_R1_C1 2.718e-01 4.203e-02 2.718e-01 
*LOADS
*RC I_131:A 2.285e-02
*RC NAND2_66:B 2.285e-02
*END

*R_NET N92 5.436e-01
*DRIVER N92
*CELL NULL
*C2_R1_C1 2.718e-01 4.203e-02 2.718e-01 
*LOADS
*RC I_105:A 2.285e-02
*RC NAND2_135:B 2.285e-02
*END

*R_NET N95 8.629e-01
*DRIVER N95
*CELL NULL
*C2_R1_C1 4.314e-01 6.672e-02 4.314e-01 
*LOADS
*RC I_132:A 5.757e-02
*RC NAND4_145:D 5.757e-02
*RC NAND2_28:B 5.757e-02
*END

*R_NET N99 5.436e-01
*DRIVER N99
*CELL NULL
*C2_R1_C1 2.718e-01 4.203e-02 2.718e-01 
*LOADS
*RC I_107:A 2.285e-02
*RC NAND2_115:B 2.285e-02
*END

*R_NET N102 5.436e-01
*DRIVER N102
*CELL NULL
*C2_R1_C1 2.718e-01 4.203e-02 2.718e-01 
*LOADS
*RC I_133:A 2.285e-02
*RC NAND2_67:B 2.285e-02
*END

*R_NET N105 5.436e-01
*DRIVER N105
*CELL NULL
*C2_R1_C1 2.718e-01 4.203e-02 2.718e-01 
*LOADS
*RC I_109:A 2.285e-02
*RC NAND2_136:B 2.285e-02
*END

*R_NET N108 8.629e-01
*DRIVER N108
*CELL NULL
*C2_R1_C1 4.314e-01 6.672e-02 4.314e-01 
*LOADS
*RC I_134:A 5.757e-02
*RC NAND4_146:D 5.757e-02
*RC NAND2_29:B 5.757e-02
*END

*R_NET N112 5.436e-01
*DRIVER N112
*CELL NULL
*C2_R1_C1 2.718e-01 4.203e-02 2.718e-01 
*LOADS
*RC I_111:A 2.285e-02
*RC NAND2_116:B 2.285e-02
*END

*R_NET N115 5.436e-01
*DRIVER N115
*CELL NULL
*C2_R1_C1 2.718e-01 4.203e-02 2.718e-01 
*LOADS
*RC I_113:A 2.285e-02
*RC NAND2_137:B 2.285e-02
*END

*R_NET N223 2.433e-01
*DRIVER EXOR1:Z
*CELL GTECH_XOR2
*C2_R1_C1 1.216e-01 1.881e-02 1.216e-01 
*LOADS
*RC N223 4.575e-03
*END

*R_NET N329 9.876e+00
*DRIVER I_145:Z
*CELL GTECH_NOT
*C2_R1_C1 4.938e+00 7.637e-01 4.938e+00 
*LOADS
*RC N329 7.543e+00
*RC XOR2_112:A 7.543e+00
*RC XOR2_110:A 7.543e+00
*RC XOR2_108:A 7.543e+00
*RC XOR2_106:A 7.543e+00
*RC XOR2_104:A 7.543e+00
*RC XOR2_102:A 7.543e+00
*RC XOR2_101:A 7.543e+00
*RC XOR2_100:A 7.543e+00
*RC XOR2_99:A 7.543e+00
*RC NAND2_116:A 7.543e+00
*RC NAND2_115:A 7.543e+00
*RC NAND2_114:A 7.543e+00
*RC NAND2_113:A 7.543e+00
*RC NAND2_111:A 7.543e+00
*RC NAND2_109:A 7.543e+00
*RC NAND2_107:A 7.543e+00
*RC NAND2_105:A 7.543e+00
*RC NAND2_103:B 7.543e+00
*END

*R_NET N370 3.765e+00
*DRIVER I_146:Z
*CELL GTECH_NOT
*C2_R1_C1 1.883e+00 2.912e-01 1.883e+00 
*LOADS
*RC N370 1.096e+00
*RC NAND2_137:A 1.096e+00
*RC NAND2_136:A 1.096e+00
*RC NAND2_135:A 1.096e+00
*RC NAND2_134:A 1.096e+00
*RC NAND2_133:A 1.096e+00
*RC NAND2_132:A 1.096e+00
*RC NAND2_131:A 1.096e+00
*RC NAND2_130:A 1.096e+00
*RC NAND2_129:B 1.096e+00
*END

*R_NET N421 2.433e-01
*DRIVER NOR2_153:Z
*CELL GTECH_AND2
*C2_R1_C1 1.216e-01 1.881e-02 1.216e-01 
*LOADS
*RC N421 4.575e-03
*END

*R_NET N430 2.433e-01
*DRIVER I_76:Z
*CELL GTECH_NOT
*C2_R1_C1 1.216e-01 1.881e-02 1.216e-01 
*LOADS
*RC N430 4.575e-03
*END

*R_NET N431 2.433e-01
*DRIVER I_77:Z
*CELL GTECH_NOT
*C2_R1_C1 1.216e-01 1.881e-02 1.216e-01 
*LOADS
*RC N431 4.575e-03
*END

*R_NET N432 2.433e-01
*DRIVER I_78:Z
*CELL GTECH_NOT
*C2_R1_C1 1.216e-01 1.881e-02 1.216e-01 
*LOADS
*RC N432 4.575e-03
*END

*R_NET N118 5.436e-01
*DRIVER I_117:Z
*CELL GTECH_NOT
*C2_R1_C1 2.718e-01 4.203e-02 2.718e-01 
*LOADS
*RC AND1:A 2.285e-02
*RC NAND2_19:A 2.285e-02
*END

*R_NET N154 5.436e-01
*DRIVER I_0:Z
*CELL GTECH_NOT
*C2_R1_C1 2.718e-01 4.203e-02 2.718e-01 
*LOADS
*RC g1:A 2.285e-02
*RC XOR2_50:B 2.285e-02
*END

*R_NET N122 2.433e-01
*DRIVER I_119:Z
*CELL GTECH_NOT
*C2_R1_C1 1.216e-01 1.881e-02 1.216e-01 
*LOADS
*RC NAND2_22:A 4.575e-03
*END

*R_NET N159 5.436e-01
*DRIVER I_1:Z
*CELL GTECH_NOT
*C2_R1_C1 2.718e-01 4.203e-02 2.718e-01 
*LOADS
*RC g1:B 2.285e-02
*RC XOR2_51:B 2.285e-02
*END

*R_NET N126 2.433e-01
*DRIVER I_121:Z
*CELL GTECH_NOT
*C2_R1_C1 1.216e-01 1.881e-02 1.216e-01 
*LOADS
*RC NAND2_23:A 4.575e-03
*END

*R_NET N162 5.436e-01
*DRIVER I_2:Z
*CELL GTECH_NOT
*C2_R1_C1 2.718e-01 4.203e-02 2.718e-01 
*LOADS
*RC g1:C 2.285e-02
*RC XOR2_52:B 2.285e-02
*END

*R_NET N130 2.433e-01
*DRIVER I_123:Z
*CELL GTECH_NOT
*C2_R1_C1 1.216e-01 1.881e-02 1.216e-01 
*LOADS
*RC NAND2_24:A 4.575e-03
*END

*R_NET N165 5.436e-01
*DRIVER I_3:Z
*CELL GTECH_NOT
*C2_R1_C1 2.718e-01 4.203e-02 2.718e-01 
*LOADS
*RC g2:A 2.285e-02
*RC XOR2_53:B 2.285e-02
*END

*R_NET N134 2.433e-01
*DRIVER I_125:Z
*CELL GTECH_NOT
*C2_R1_C1 1.216e-01 1.881e-02 1.216e-01 
*LOADS
*RC NAND2_25:A 4.575e-03
*END

*R_NET N168 5.436e-01
*DRIVER I_4:Z
*CELL GTECH_NOT
*C2_R1_C1 2.718e-01 4.203e-02 2.718e-01 
*LOADS
*RC g2:B 2.285e-02
*RC XOR2_54:B 2.285e-02
*END

*R_NET N138 2.433e-01
*DRIVER I_127:Z
*CELL GTECH_NOT
*C2_R1_C1 1.216e-01 1.881e-02 1.216e-01 
*LOADS
*RC NAND2_26:A 4.575e-03
*END

*R_NET N171 5.436e-01
*DRIVER I_5:Z
*CELL GTECH_NOT
*C2_R1_C1 2.718e-01 4.203e-02 2.718e-01 
*LOADS
*RC g3:A 2.285e-02
*RC XOR2_55:B 2.285e-02
*END

*R_NET N142 2.433e-01
*DRIVER I_129:Z
*CELL GTECH_NOT
*C2_R1_C1 1.216e-01 1.881e-02 1.216e-01 
*LOADS
*RC NAND2_27:A 4.575e-03
*END

*R_NET N174 5.436e-01
*DRIVER I_6:Z
*CELL GTECH_NOT
*C2_R1_C1 2.718e-01 4.203e-02 2.718e-01 
*LOADS
*RC g3:B 2.285e-02
*RC XOR2_57:B 2.285e-02
*END

*R_NET N146 2.433e-01
*DRIVER I_131:Z
*CELL GTECH_NOT
*C2_R1_C1 1.216e-01 1.881e-02 1.216e-01 
*LOADS
*RC NAND2_28:A 4.575e-03
*END

*R_NET N177 5.436e-01
*DRIVER I_7:Z
*CELL GTECH_NOT
*C2_R1_C1 2.718e-01 4.203e-02 2.718e-01 
*LOADS
*RC g4:A 2.285e-02
*RC XOR2_59:B 2.285e-02
*END

*R_NET N150 5.436e-01
*DRIVER I_133:Z
*CELL GTECH_NOT
*C2_R1_C1 2.718e-01 4.203e-02 2.718e-01 
*LOADS
*RC AND1:B 2.285e-02
*RC NAND2_29:A 2.285e-02
*END

*R_NET N180 5.436e-01
*DRIVER I_8:Z
*CELL GTECH_NOT
*C2_R1_C1 2.718e-01 4.203e-02 2.718e-01 
*LOADS
*RC g4:B 2.285e-02
*RC XOR2_61:B 2.285e-02
*END

*R_NET op 9.876e+00
*DRIVER I_135:Z
*CELL GTECH_NOT
*C2_R1_C1 4.938e+00 7.637e-01 4.938e+00 
*LOADS
*RC EXOR1:A 7.543e+00
*RC XOR2_61:A 7.543e+00
*RC XOR2_59:A 7.543e+00
*RC XOR2_57:A 7.543e+00
*RC XOR2_55:A 7.543e+00
*RC XOR2_54:A 7.543e+00
*RC XOR2_53:A 7.543e+00
*RC XOR2_52:A 7.543e+00
*RC XOR2_51:A 7.543e+00
*RC XOR2_50:A 7.543e+00
*RC NAND2_67:A 7.543e+00
*RC NAND2_66:A 7.543e+00
*RC NAND2_65:A 7.543e+00
*RC NAND2_64:A 7.543e+00
*RC NAND2_63:A 7.543e+00
*RC NAND2_62:A 7.543e+00
*RC NAND2_60:A 7.543e+00
*RC NAND2_58:A 7.543e+00
*RC NAND2_56:B 7.543e+00
*END

*R_NET N242 2.433e-01
*DRIVER I_9:Z
*CELL GTECH_NOT
*C2_R1_C1 1.216e-01 1.881e-02 1.216e-01 
*LOADS
*RC NAND4_138:B 4.575e-03
*END

*R_NET N246 2.433e-01
*DRIVER I_10:Z
*CELL GTECH_NOT
*C2_R1_C1 1.216e-01 1.881e-02 1.216e-01 
*LOADS
*RC NAND4_139:A 4.575e-03
*END

*R_NET N250 2.433e-01
*DRIVER I_11:Z
*CELL GTECH_NOT
*C2_R1_C1 1.216e-01 1.881e-02 1.216e-01 
*LOADS
*RC NAND4_140:A 4.575e-03
*END

*R_NET N254 2.433e-01
*DRIVER I_12:Z
*CELL GTECH_NOT
*C2_R1_C1 1.216e-01 1.881e-02 1.216e-01 
*LOADS
*RC NAND4_141:A 4.575e-03
*END

*R_NET N255 2.433e-01
*DRIVER I_13:Z
*CELL GTECH_NOT
*C2_R1_C1 1.216e-01 1.881e-02 1.216e-01 
*LOADS
*RC NAND4_142:A 4.575e-03
*END

*R_NET N256 2.433e-01
*DRIVER I_14:Z
*CELL GTECH_NOT
*C2_R1_C1 1.216e-01 1.881e-02 1.216e-01 
*LOADS
*RC NAND4_143:A 4.575e-03
*END

*R_NET N257 2.433e-01
*DRIVER I_15:Z
*CELL GTECH_NOT
*C2_R1_C1 1.216e-01 1.881e-02 1.216e-01 
*LOADS
*RC NAND4_144:A 4.575e-03
*END

*R_NET N258 2.433e-01
*DRIVER I_16:Z
*CELL GTECH_NOT
*C2_R1_C1 1.216e-01 1.881e-02 1.216e-01 
*LOADS
*RC NAND4_145:A 4.575e-03
*END

*R_NET N259 2.433e-01
*DRIVER I_17:Z
*CELL GTECH_NOT
*C2_R1_C1 1.216e-01 1.881e-02 1.216e-01 
*LOADS
*RC NAND4_146:A 4.575e-03
*END

*R_NET N224 5.436e-01
*DRIVER XOR2_50:Z
*CELL GTECH_XOR2
*C2_R1_C1 2.718e-01 4.203e-02 2.718e-01 
*LOADS
*RC NAND2_69:A 2.285e-02
*RC NAND2_68:A 2.285e-02
*END

*R_NET N157 2.433e-01
*DRIVER NOR2_20:Z
*CELL GTECH_AND2
*C2_R1_C1 1.216e-01 1.881e-02 1.216e-01 
*LOADS
*RC NAND2_68:B 4.575e-03
*END

*R_NET N260 5.436e-01
*DRIVER I_18:Z
*CELL GTECH_NOT
*C2_R1_C1 2.718e-01 4.203e-02 2.718e-01 
*LOADS
*RC g6:A 2.285e-02
*RC XOR2_99:B 2.285e-02
*END

*R_NET N158 2.433e-01
*DRIVER NOR2_21:Z
*CELL GTECH_AND2
*C2_R1_C1 1.216e-01 1.881e-02 1.216e-01 
*LOADS
*RC NAND2_69:B 4.575e-03
*END

*R_NET N263 2.433e-01
*DRIVER I_19:Z
*CELL GTECH_NOT
*C2_R1_C1 1.216e-01 1.881e-02 1.216e-01 
*LOADS
*RC I_136:A 4.575e-03
*END

*R_NET N227 5.436e-01
*DRIVER XOR2_51:Z
*CELL GTECH_XOR2
*C2_R1_C1 2.718e-01 4.203e-02 2.718e-01 
*LOADS
*RC NAND2_78:A 2.285e-02
*RC NAND2_70:A 2.285e-02
*END

*R_NET N183 2.433e-01
*DRIVER NOR2_30:Z
*CELL GTECH_AND2
*C2_R1_C1 1.216e-01 1.881e-02 1.216e-01 
*LOADS