*SPEF "IEEE 1481-1999"
*DESIGN "c499"
*DATE "Tue Oct 25 21:48:21 2022"
*VENDOR "SYNOPSYS INC"
*PROGRAM "Synopsys Design Compiler"
*VERSION "S-2021.06-SP5-3"
*DESIGN_FLOW "SYNTHESIS"
*DIVIDER /
*DELIMITER :
*BUS_DELIMITER []
*T_UNIT 1.0 NS
*C_UNIT 0.0010 PF
*R_UNIT 1000.0 KOHM
*L_UNIT 1.0 HENRY

*PORTS

N1 I *L 0.000e+00 *S 0.000e+00 0.000e+00 
N5 I *L 0.000e+00 *S 0.000e+00 0.000e+00 
N9 I *L 0.000e+00 *S 0.000e+00 0.000e+00 
N13 I *L 0.000e+00 *S 0.000e+00 0.000e+00 
N17 I *L 0.000e+00 *S 0.000e+00 0.000e+00 
N21 I *L 0.000e+00 *S 0.000e+00 0.000e+00 
N25 I *L 0.000e+00 *S 0.000e+00 0.000e+00 
N29 I *L 0.000e+00 *S 0.000e+00 0.000e+00 
N33 I *L 0.000e+00 *S 0.000e+00 0.000e+00 
N37 I *L 0.000e+00 *S 0.000e+00 0.000e+00 
N41 I *L 0.000e+00 *S 0.000e+00 0.000e+00 
N45 I *L 0.000e+00 *S 0.000e+00 0.000e+00 
N49 I *L 0.000e+00 *S 0.000e+00 0.000e+00 
N53 I *L 0.000e+00 *S 0.000e+00 0.000e+00 
N57 I *L 0.000e+00 *S 0.000e+00 0.000e+00 
N61 I *L 0.000e+00 *S 0.000e+00 0.000e+00 
N65 I *L 0.000e+00 *S 0.000e+00 0.000e+00 
N69 I *L 0.000e+00 *S 0.000e+00 0.000e+00 
N73 I *L 0.000e+00 *S 0.000e+00 0.000e+00 
N77 I *L 0.000e+00 *S 0.000e+00 0.000e+00 
N81 I *L 0.000e+00 *S 0.000e+00 0.000e+00 
N85 I *L 0.000e+00 *S 0.000e+00 0.000e+00 
N89 I *L 0.000e+00 *S 0.000e+00 0.000e+00 
N93 I *L 0.000e+00 *S 0.000e+00 0.000e+00 
N97 I *L 0.000e+00 *S 0.000e+00 0.000e+00 
N101 I *L 0.000e+00 *S 0.000e+00 0.000e+00 
N105 I *L 0.000e+00 *S 0.000e+00 0.000e+00 
N109 I *L 0.000e+00 *S 0.000e+00 0.000e+00 
N113 I *L 0.000e+00 *S 0.000e+00 0.000e+00 
N117 I *L 0.000e+00 *S 0.000e+00 0.000e+00 
N121 I *L 0.000e+00 *S 0.000e+00 0.000e+00 
N125 I *L 0.000e+00 *S 0.000e+00 0.000e+00 
N129 I *L 0.000e+00 *S 0.000e+00 0.000e+00 
N130 I *L 0.000e+00 *S 0.000e+00 0.000e+00 
N131 I *L 0.000e+00 *S 0.000e+00 0.000e+00 
N132 I *L 0.000e+00 *S 0.000e+00 0.000e+00 
N133 I *L 0.000e+00 *S 0.000e+00 0.000e+00 
N134 I *L 0.000e+00 *S 0.000e+00 0.000e+00 
N135 I *L 0.000e+00 *S 0.000e+00 0.000e+00 
N136 I *L 0.000e+00 *S 0.000e+00 0.000e+00 
N137 I *L 0.000e+00 *S 0.000e+00 0.000e+00 
N724 O *L 0.000e+00 *S 0.000e+00 0.000e+00 
N725 O *L 0.000e+00 *S 0.000e+00 0.000e+00 
N726 O *L 0.000e+00 *S 0.000e+00 0.000e+00 
N727 O *L 0.000e+00 *S 0.000e+00 0.000e+00 
N728 O *L 0.000e+00 *S 0.000e+00 0.000e+00 
N729 O *L 0.000e+00 *S 0.000e+00 0.000e+00 
N730 O *L 0.000e+00 *S 0.000e+00 0.000e+00 
N731 O *L 0.000e+00 *S 0.000e+00 0.000e+00 
N732 O *L 0.000e+00 *S 0.000e+00 0.000e+00 
N733 O *L 0.000e+00 *S 0.000e+00 0.000e+00 
N734 O *L 0.000e+00 *S 0.000e+00 0.000e+00 
N735 O *L 0.000e+00 *S 0.000e+00 0.000e+00 
N736 O *L 0.000e+00 *S 0.000e+00 0.000e+00 
N737 O *L 0.000e+00 *S 0.000e+00 0.000e+00 
N738 O *L 0.000e+00 *S 0.000e+00 0.000e+00 
N739 O *L 0.000e+00 *S 0.000e+00 0.000e+00 
N740 O *L 0.000e+00 *S 0.000e+00 0.000e+00 
N741 O *L 0.000e+00 *S 0.000e+00 0.000e+00 
N742 O *L 0.000e+00 *S 0.000e+00 0.000e+00 
N743 O *L 0.000e+00 *S 0.000e+00 0.000e+00 
N744 O *L 0.000e+00 *S 0.000e+00 0.000e+00 
N745 O *L 0.000e+00 *S 0.000e+00 0.000e+00 
N746 O *L 0.000e+00 *S 0.000e+00 0.000e+00 
N747 O *L 0.000e+00 *S 0.000e+00 0.000e+00 
N748 O *L 0.000e+00 *S 0.000e+00 0.000e+00 
N749 O *L 0.000e+00 *S 0.000e+00 0.000e+00 
N750 O *L 0.000e+00 *S 0.000e+00 0.000e+00 
N751 O *L 0.000e+00 *S 0.000e+00 0.000e+00 
N752 O *L 0.000e+00 *S 0.000e+00 0.000e+00 
N753 O *L 0.000e+00 *S 0.000e+00 0.000e+00 
N754 O *L 0.000e+00 *S 0.000e+00 0.000e+00 
N755 O *L 0.000e+00 *S 0.000e+00 0.000e+00 

*R_NET N1 8.629e-01
*DRIVER N1
*CELL NULL
*C2_R1_C1 4.314e-01 6.672e-02 4.314e-01 
*LOADS
*RC XOR2_171:A 5.757e-02
*RC XOR2_25:A 5.757e-02
*RC XOR2_1:A 5.757e-02
*END

*R_NET N5 8.629e-01
*DRIVER N5
*CELL NULL
*C2_R1_C1 4.314e-01 6.672e-02 4.314e-01 
*LOADS
*RC XOR2_172:A 5.757e-02
*RC XOR2_27:A 5.757e-02
*RC XOR2_1:B 5.757e-02
*END

*R_NET N9 8.629e-01
*DRIVER N9
*CELL NULL
*C2_R1_C1 4.314e-01 6.672e-02 4.314e-01 
*LOADS
*RC XOR2_173:A 5.757e-02
*RC XOR2_29:A 5.757e-02
*RC XOR2_2:A 5.757e-02
*END

*R_NET N13 8.629e-01
*DRIVER N13
*CELL NULL
*C2_R1_C1 4.314e-01 6.672e-02 4.314e-01 
*LOADS
*RC XOR2_174:A 5.757e-02
*RC XOR2_31:A 5.757e-02
*RC XOR2_2:B 5.757e-02
*END

*R_NET N17 8.629e-01
*DRIVER N17
*CELL NULL
*C2_R1_C1 4.314e-01 6.672e-02 4.314e-01 
*LOADS
*RC XOR2_175:A 5.757e-02
*RC XOR2_25:B 5.757e-02
*RC XOR2_3:A 5.757e-02
*END

*R_NET N21 8.629e-01
*DRIVER N21
*CELL NULL
*C2_R1_C1 4.314e-01 6.672e-02 4.314e-01 
*LOADS
*RC XOR2_176:A 5.757e-02
*RC XOR2_27:B 5.757e-02
*RC XOR2_3:B 5.757e-02
*END

*R_NET N25 8.629e-01
*DRIVER N25
*CELL NULL
*C2_R1_C1 4.314e-01 6.672e-02 4.314e-01 
*LOADS
*RC XOR2_177:A 5.757e-02
*RC XOR2_29:B 5.757e-02
*RC XOR2_4:A 5.757e-02
*END

*R_NET N29 8.629e-01
*DRIVER N29
*CELL NULL
*C2_R1_C1 4.314e-01 6.672e-02 4.314e-01 
*LOADS
*RC XOR2_178:A 5.757e-02
*RC XOR2_31:B 5.757e-02
*RC XOR2_4:B 5.757e-02
*END

*R_NET N33 8.629e-01
*DRIVER N33
*CELL NULL
*C2_R1_C1 4.314e-01 6.672e-02 4.314e-01 
*LOADS
*RC XOR2_179:A 5.757e-02
*RC XOR2_26:A 5.757e-02
*RC XOR2_5:A 5.757e-02
*END

*R_NET N37 8.629e-01
*DRIVER N37
*CELL NULL
*C2_R1_C1 4.314e-01 6.672e-02 4.314e-01 
*LOADS
*RC XOR2_180:A 5.757e-02
*RC XOR2_28:A 5.757e-02
*RC XOR2_5:B 5.757e-02
*END

*R_NET N41 8.629e-01
*DRIVER N41
*CELL NULL
*C2_R1_C1 4.314e-01 6.672e-02 4.314e-01 
*LOADS
*RC XOR2_181:A 5.757e-02
*RC XOR2_30:A 5.757e-02
*RC XOR2_6:A 5.757e-02
*END

*R_NET N45 8.629e-01
*DRIVER N45
*CELL NULL
*C2_R1_C1 4.314e-01 6.672e-02 4.314e-01 
*LOADS
*RC XOR2_182:A 5.757e-02
*RC XOR2_32:A 5.757e-02
*RC XOR2_6:B 5.757e-02
*END

*R_NET N49 8.629e-01
*DRIVER N49
*CELL NULL
*C2_R1_C1 4.314e-01 6.672e-02 4.314e-01 
*LOADS
*RC XOR2_183:A 5.757e-02
*RC XOR2_26:B 5.757e-02
*RC XOR2_7:A 5.757e-02
*END

*R_NET N53 8.629e-01
*DRIVER N53
*CELL NULL
*C2_R1_C1 4.314e-01 6.672e-02 4.314e-01 
*LOADS
*RC XOR2_184:A 5.757e-02
*RC XOR2_28:B 5.757e-02
*RC XOR2_7:B 5.757e-02
*END

*R_NET N57 8.629e-01
*DRIVER N57
*CELL NULL
*C2_R1_C1 4.314e-01 6.672e-02 4.314e-01 
*LOADS
*RC XOR2_185:A 5.757e-02
*RC XOR2_30:B 5.757e-02
*RC XOR2_8:A 5.757e-02
*END

*R_NET N61 8.629e-01
*DRIVER N61
*CELL NULL
*C2_R1_C1 4.314e-01 6.672e-02 4.314e-01 
*LOADS
*RC XOR2_186:A 5.757e-02
*RC XOR2_32:B 5.757e-02
*RC XOR2_8:B 5.757e-02
*END

*R_NET N65 8.629e-01
*DRIVER N65
*CELL NULL
*C2_R1_C1 4.314e-01 6.672e-02 4.314e-01 
*LOADS
*RC XOR2_187:A 5.757e-02
*RC XOR2_33:A 5.757e-02
*RC XOR2_9:A 5.757e-02
*END

*R_NET N69 8.629e-01
*DRIVER N69
*CELL NULL
*C2_R1_C1 4.314e-01 6.672e-02 4.314e-01 
*LOADS
*RC XOR2_188:A 5.757e-02
*RC XOR2_35:A 5.757e-02
*RC XOR2_9:B 5.757e-02
*END

*R_NET N73 8.629e-01
*DRIVER N73
*CELL NULL
*C2_R1_C1 4.314e-01 6.672e-02 4.314e-01 
*LOADS
*RC XOR2_189:A 5.757e-02
*RC XOR2_37:A 5.757e-02
*RC XOR2_10:A 5.757e-02
*END

*R_NET N77 8.629e-01
*DRIVER N77
*CELL NULL
*C2_R1_C1 4.314e-01 6.672e-02 4.314e-01 
*LOADS
*RC XOR2_190:A 5.757e-02
*RC XOR2_39:A 5.757e-02
*RC XOR2_10:B 5.757e-02
*END

*R_NET N81 8.629e-01
*DRIVER N81
*CELL NULL
*C2_R1_C1 4.314e-01 6.672e-02 4.314e-01 
*LOADS
*RC XOR2_191:A 5.757e-02
*RC XOR2_33:B 5.757e-02
*RC XOR2_11:A 5.757e-02
*END

*R_NET N85 8.629e-01
*DRIVER N85
*CELL NULL
*C2_R1_C1 4.314e-01 6.672e-02 4.314e-01 
*LOADS
*RC XOR2_192:A 5.757e-02
*RC XOR2_35:B 5.757e-02
*RC XOR2_11:B 5.757e-02
*END

*R_NET N89 8.629e-01
*DRIVER N89
*CELL NULL
*C2_R1_C1 4.314e-01 6.672e-02 4.314e-01 
*LOADS
*RC XOR2_193:A 5.757e-02
*RC XOR2_37:B 5.757e-02
*RC XOR2_12:A 5.757e-02
*END

*R_NET N93 8.629e-01
*DRIVER N93
*CELL NULL
*C2_R1_C1 4.314e-01 6.672e-02 4.314e-01 
*LOADS
*RC XOR2_194:A 5.757e-02
*RC XOR2_39:B 5.757e-02
*RC XOR2_12:B 5.757e-02
*END

*R_NET N97 8.629e-01
*DRIVER N97
*CELL NULL
*C2_R1_C1 4.314e-01 6.672e-02 4.314e-01 
*LOADS
*RC XOR2_195:A 5.757e-02
*RC XOR2_34:A 5.757e-02
*RC XOR2_13:A 5.757e-02
*END

*R_NET N101 8.629e-01
*DRIVER N101
*CELL NULL
*C2_R1_C1 4.314e-01 6.672e-02 4.314e-01 
*LOADS
*RC XOR2_196:A 5.757e-02
*RC XOR2_36:A 5.757e-02
*RC XOR2_13:B 5.757e-02
*END

*R_NET N105 8.629e-01
*DRIVER N105
*CELL NULL
*C2_R1_C1 4.314e-01 6.672e-02 4.314e-01 
*LOADS
*RC XOR2_197:A 5.757e-02
*RC XOR2_38:A 5.757e-02
*RC XOR2_14:A 5.757e-02
*END

*R_NET N109 8.629e-01
*DRIVER N109
*CELL NULL
*C2_R1_C1 4.314e-01 6.672e-02 4.314e-01 
*LOADS
*RC XOR2_198:A 5.757e-02
*RC XOR2_40:A 5.757e-02
*RC XOR2_14:B 5.757e-02
*END

*R_NET N113 8.629e-01
*DRIVER N113
*CELL NULL
*C2_R1_C1 4.314e-01 6.672e-02 4.314e-01 
*LOADS
*RC XOR2_199:A 5.757e-02
*RC XOR2_34:B 5.757e-02
*RC XOR2_15:A 5.757e-02
*END

*R_NET N117 8.629e-01
*DRIVER N117
*CELL NULL
*C2_R1_C1 4.314e-01 6.672e-02 4.314e-01 
*LOADS
*RC XOR2_200:A 5.757e-02
*RC XOR2_36:B 5.757e-02
*RC XOR2_15:B 5.757e-02
*END

*R_NET N121 8.629e-01
*DRIVER N121
*CELL NULL
*C2_R1_C1 4.314e-01 6.672e-02 4.314e-01 
*LOADS
*RC XOR2_201:A 5.757e-02
*RC XOR2_38:B 5.757e-02
*RC XOR2_16:A 5.757e-02
*END

*R_NET N125 8.629e-01
*DRIVER N125
*CELL NULL
*C2_R1_C1 4.314e-01 6.672e-02 4.314e-01 
*LOADS
*RC XOR2_202:A 5.757e-02
*RC XOR2_40:B 5.757e-02
*RC XOR2_16:B 5.757e-02
*END

*R_NET N129 2.433e-01
*DRIVER N129
*CELL NULL
*C2_R1_C1 1.216e-01 1.881e-02 1.216e-01 
*LOADS
*RC AND2_17:A 4.575e-03
*END

*R_NET N130 2.433e-01
*DRIVER N130
*CELL NULL
*C2_R1_C1 1.216e-01 1.881e-02 1.216e-01 
*LOADS
*RC AND2_18:A 4.575e-03
*END

*R_NET N131 2.433e-01
*DRIVER N131
*CELL NULL
*C2_R1_C1 1.216e-01 1.881e-02 1.216e-01 
*LOADS
*RC AND2_19:A 4.575e-03
*END

*R_NET N132 2.433e-01
*DRIVER N132
*CELL NULL
*C2_R1_C1 1.216e-01 1.881e-02 1.216e-01 
*LOADS
*RC AND2_20:A 4.575e-03
*END

*R_NET N133 2.433e-01
*DRIVER N133
*CELL NULL
*C2_R1_C1 1.216e-01 1.881e-02 1.216e-01 
*LOADS
*RC AND2_21:A 4.575e-03
*END

*R_NET N134 2.433e-01
*DRIVER N134
*CELL NULL
*C2_R1_C1 1.216e-01 1.881e-02 1.216e-01 
*LOADS
*RC AND2_22:A 4.575e-03
*END

*R_NET N135 2.433e-01
*DRIVER N135
*CELL NULL
*C2_R1_C1 1.216e-01 1.881e-02 1.216e-01 
*LOADS
*RC AND2_23:A 4.575e-03
*END

*R_NET N136 2.433e-01
*DRIVER N136
*CELL NULL
*C2_R1_C1 1.216e-01 1.881e-02 1.216e-01 
*LOADS
*RC AND2_24:A 4.575e-03
*END

*R_NET N137 2.801e+00
*DRIVER N137
*CELL NULL
*C2_R1_C1 1.400e+00 2.166e-01 1.400e+00 
*LOADS
*RC AND2_24:B 6.065e-01
*RC AND2_23:B 6.065e-01
*RC AND2_22:B 6.065e-01
*RC AND2_21:B 6.065e-01
*RC AND2_20:B 6.065e-01
*RC AND2_19:B 6.065e-01
*RC AND2_18:B 6.065e-01
*RC AND2_17:B 6.065e-01
*END

*R_NET N724 2.433e-01
*DRIVER XOR2_171:Z
*CELL GTECH_XOR2
*C2_R1_C1 1.216e-01 1.881e-02 1.216e-01 
*LOADS
*RC N724 4.575e-03
*END

*R_NET N725 2.433e-01
*DRIVER XOR2_172:Z
*CELL GTECH_XOR2
*C2_R1_C1 1.216e-01 1.881e-02 1.216e-01 
*LOADS
*RC N725 4.575e-03
*END

*R_NET N726 2.433e-01
*DRIVER XOR2_173:Z
*CELL GTECH_XOR2
*C2_R1_C1 1.216e-01 1.881e-02 1.216e-01 
*LOADS
*RC N726 4.575e-03
*END

*R_NET N727 2.433e-01
*DRIVER XOR2_174:Z
*CELL GTECH_XOR2
*C2_R1_C1 1.216e-01 1.881e-02 1.216e-01 
*LOADS
*RC N727 4.575e-03
*END

*R_NET N728 2.433e-01
*DRIVER EXOR1:Z
*CELL GTECH_XOR2
*C2_R1_C1 1.216e-01 1.881e-02 1.216e-01 
*LOADS
*RC N728 4.575e-03
*END

*R_NET N729 2.433e-01
*DRIVER XOR2_176:Z
*CELL GTECH_XOR2
*C2_R1_C1 1.216e-01 1.881e-02 1.216e-01 
*LOADS
*RC N729 4.575e-03
*END

*R_NET N730 2.433e-01
*DRIVER XOR2_177:Z
*CELL GTECH_XOR2
*C2_R1_C1 1.216e-01 1.881e-02 1.216e-01 
*LOADS
*RC N730 4.575e-03
*END

*R_NET N731 2.433e-01
*DRIVER XOR2_178:Z
*CELL GTECH_XOR2
*C2_R1_C1 1.216e-01 1.881e-02 1.216e-01 
*LOADS
*RC N731 4.575e-03
*END

*R_NET N732 2.433e-01
*DRIVER XOR2_179:Z
*CELL GTECH_XOR2
*C2_R1_C1 1.216e-01 1.881e-02 1.216e-01 
*LOADS
*RC N732 4.575e-03
*END

*R_NET N733 2.433e-01
*DRIVER XOR2_180:Z
*CELL GTECH_XOR2
*C2_R1_C1 1.216e-01 1.881e-02 1.216e-01 
*LOADS
*RC N733 4.575e-03
*END

*R_NET N734 2.433e-01
*DRIVER XOR2_181:Z
*CELL GTECH_XOR2
*C2_R1_C1 1.216e-01 1.881e-02 1.216e-01 
*LOADS
*RC N734 4.575e-03
*END

*R_NET N735 2.433e-01
*DRIVER XOR2_182:Z
*CELL GTECH_XOR2
*C2_R1_C1 1.216e-01 1.881e-02 1.216e-01 
*LOADS
*RC N735 4.575e-03
*END

*R_NET N736 2.433e-01
*DRIVER XOR2_183:Z
*CELL GTECH_XOR2
*C2_R1_C1 1.216e-01 1.881e-02 1.216e-01 
*LOADS
*RC N736 4.575e-03
*END

*R_NET N737 2.433e-01
*DRIVER XOR2_184:Z
*CELL GTECH_XOR2
*C2_R1_C1 1.216e-01 1.881e-02 1.216e-01 
*LOADS
*RC N737 4.575e-03
*END

*R_NET N738 2.433e-01
*DRIVER XOR2_185:Z
*CELL GTECH_XOR2
*C2_R1_C1 1.216e-01 1.881e-02 1.216e-01 
*LOADS
*RC N738 4.575e-03
*END

*R_NET N739 2.433e-01
*DRIVER XOR2_186:Z
*CELL GTECH_XOR2
*C2_R1_C1 1.216e-01 1.881e-02 1.216e-01 
*LOADS
*RC N739 4.575e-03
*END

*R_NET N740 2.433e-01
*DRIVER XOR2_187:Z
*CELL GTECH_XOR2
*C2_R1_C1 1.216e-01 1.881e-02 1.216e-01 
*LOADS
*RC N740 4.575e-03
*END

*R_NET N741 2.433e-01
*DRIVER XOR2_188:Z
*CELL GTECH_XOR2
*C2_R1_C1 1.216e-01 1.881e-02 1.216e-01 
*LOADS
*RC N741 4.575e-03
*END

*R_NET N742 2.433e-01
*DRIVER XOR2_189:Z
*CELL GTECH_XOR2
*C2_R1_C1 1.216e-01 1.881e-02 1.216e-01 
*LOADS
*RC N742 4.575e-03
*END

*R_NET N743 2.433e-01
*DRIVER XOR2_190:Z
*CELL GTECH_XOR2
*C2_R1_C1 1.216e-01 1.881e-02 1.216e-01 
*LOADS
*RC N743 4.575e-03
*END

*R_NET N744 2.433e-01
*DRIVER XOR2_191:Z
*CELL GTECH_XOR2
*C2_R1_C1 1.216e-01 1.881e-02 1.216e-01 
*LOADS
*RC N744 4.575e-03
*END

*R_NET N745 2.433e-01
*DRIVER XOR2_192:Z
*CELL GTECH_XOR2
*C2_R1_C1 1.216e-01 1.881e-02 1.216e-01 
*LOADS
*RC N745 4.575e-03
*END

*R_NET N746 2.433e-01
*DRIVER XOR2_193:Z
*CELL GTECH_XOR2
*C2_R1_C1 1.216e-01 1.881e-02 1.216e-01 
*LOADS
*RC N746 4.575e-03
*END

*R_NET N747 2.433e-01
*DRIVER XOR2_194:Z
*CELL GTECH_XOR2
*C2_R1_C1 1.216e-01 1.881e-02 1.216e-01 
*LOADS
*RC N747 4.575e-03
*END

*R_NET N748 2.433e-01
*DRIVER XOR2_195:Z
*CELL GTECH_XOR2
*C2_R1_C1 1.216e-01 1.881e-02 1.216e-01 
*LOADS
*RC N748 4.575e-03
*END

*R_NET N749 2.433e-01
*DRIVER XOR2_196:Z
*CELL GTECH_XOR2
*C2_R1_C1 1.216e-01 1.881e-02 1.216e-01 
*LOADS
*RC N749 4.575e-03
*END

*R_NET N750 2.433e-01
*DRIVER XOR2_197:Z
*CELL GTECH_XOR2
*C2_R1_C1 1.216e-01 1.881e-02 1.216e-01 
*LOADS
*RC N750 4.575e-03
*END

*R_NET N751 2.433e-01
*DRIVER XOR2_198:Z
*CELL GTECH_XOR2
*C2_R1_C1 1.216e-01 1.881e-02 1.216e-01 
*LOADS
*RC N751 4.575e-03
*END

*R_NET N752 2.433e-01
*DRIVER XOR2_199:Z
*CELL GTECH_XOR2
*C2_R1_C1 1.216e-01 1.881e-02 1.216e-01 
*LOADS
*RC N752 4.575e-03
*END

*R_NET N753 2.433e-01
*DRIVER XOR2_200:Z
*CELL GTECH_XOR2
*C2_R1_C1 1.216e-01 1.881e-02 1.216e-01 
*LOADS
*RC N753 4.575e-03
*END

*R_NET N754 2.433e-01
*DRIVER XOR2_201:Z
*CELL GTECH_XOR2
*C2_R1_C1 1.216e-01 1.881e-02 1.216e-01 
*LOADS
*RC N754 4.575e-03
*END

*R_NET N755 2.433e-01
*DRIVER XOR2_202:Z
*CELL GTECH_XOR2
*C2_R1_C1 1.216e-01 1.881e-02 1.216e-01 
*LOADS
*RC N755 4.575e-03
*END

*R_NET N266 2.433e-01
*DRIVER AND2_17:Z
*CELL GTECH_AND2
*C2_R1_C1 1.216e-01 1.881e-02 1.216e-01 
*LOADS
*RC XOR2_65:A 4.575e-03
*END

*R_NET N267 2.433e-01
*DRIVER AND2_18:Z
*CELL GTECH_AND2
*C2_R1_C1 1.216e-01 1.881e-02 1.216e-01 
*LOADS
*RC XOR2_66:A 4.575e-03
*END

*R_NET N268 2.433e-01
*DRIVER AND2_19:Z
*CELL GTECH_AND2
*C2_R1_C1 1.216e-01 1.881e-02 1.216e-01 
*LOADS
*RC XOR2_67:A 4.575e-03
*END

*R_NET N269 2.433e-01
*DRIVER AND2_20:Z
*CELL GTECH_AND2
*C2_R1_C1 1.216e-01 1.881e-02 1.216e-01 
*LOADS
*RC XOR2_68:A 4.575e-03
*END

*R_NET N270 2.433e-01
*DRIVER AND2_21:Z
*CELL GTECH_AND2
*C2_R1_C1 1.216e-01 1.881e-02 1.216e-01 
*LOADS
*RC XOR2_69:A 4.575e-03
*END

*R_NET N271 2.433e-01
*DRIVER AND2_22:Z
*CELL GTECH_AND2
*C2_R1_C1 1.216e-01 1.881e-02 1.216e-01 
*LOADS
*RC XOR2_70:A 4.575e-03
*END

*R_NET N272 2.433e-01
*DRIVER AND2_23:Z
*CELL GTECH_AND2
*C2_R1_C1 1.216e-01 1.881e-02 1.216e-01 
*LOADS
*RC XOR2_71:A 4.575e-03
*END

*R_NET N273 2.433e-01
*DRIVER AND2_24:Z
*CELL GTECH_AND2
*C2_R1_C1 1.216e-01 1.881e-02 1.216e-01 
*LOADS
*RC XOR2_72:A 4.575e-03
*END

*R_NET N354 2.801e+00
*DRIVER XOR2_73:Z
*CELL GTECH_XOR2
*C2_R1_C1 1.400e+00 2.166e-01 1.400e+00 
*LOADS
*RC AND1:B 6.065e-01
*RC g9:A 6.065e-01
*RC I_0:A 6.065e-01
*RC AND4_124:A 6.065e-01
*RC AND2_151:A 6.065e-01
*RC AND2_147:A 6.065e-01
*RC AND2_143:A 6.065e-01
*RC AND2_139:A 6.065e-01
*END

*R_NET N620 1.203e+00
*DRIVER g2:Z
*CELL GTECH_AND4
*C2_R1_C1 6.014e-01 9.300e-02 6.014e-01 
*LOADS
*RC AND2_142:B 1.119e-01
*RC AND2_141:B 1.119e-01
*RC AND2_140:B 1.119e-01
*RC AND2_139:B 1.119e-01
*END

*R_NET N692 2.433e-01
*DRIVER AND2_139:Z
*CELL GTECH_AND2
*C2_R1_C1 1.216e-01 1.881e-02 1.216e-01 
*LOADS
*RC XOR2_171:B 4.575e-03
*END

*R_NET N367 2.362e+00
*DRIVER XOR2_74:Z
*CELL GTECH_XOR2
*C2_R1_C1 1.181e+00 1.827e-01 1.181e+00 
*LOADS
*RC g13:B 4.315e-01
*RC I_1:A 4.315e-01
*RC AND4_123:B 4.315e-01
*RC AND2_152:A 4.315e-01
*RC AND2_148:A 4.315e-01
*RC AND2_144:A 4.315e-01
*RC AND2_140:A 4.315e-01
*END

*R_NET N693 2.433e-01
*DRIVER AND2_140:Z
*CELL GTECH_AND2
*C2_R1_C1 1.216e-01 1.881e-02 1.216e-01 
*LOADS
*RC XOR2_172:B 4.575e-03
*END

*R_NET N380 2.801e+00
*DRIVER XOR2_75:Z
*CELL GTECH_XOR2
*C2_R1_C1 1.400e+00 2.166e-01 1.400e+00 
*LOADS
*RC g14:A 6.065e-01
*RC g10:A 6.065e-01
*RC I_2:A 6.065e-01
*RC AND4_122:C 6.065e-01
*RC AND2_153:A 6.065e-01
*RC AND2_149:A 6.065e-01
*RC AND2_145:A 6.065e-01
*RC AND2_141:A 6.065e-01
*END

*R_NET N694 2.433e-01
*DRIVER AND2_141:Z
*CELL GTECH_AND2
*C2_R1_C1 1.216e-01 1.881e-02 1.216e-01 
*LOADS
*RC XOR2_173:B 4.575e-03
*END

*R_NET N393 2.801e+00
*DRIVER XOR2_76:Z
*CELL GTECH_XOR2
*C2_R1_C1 1.400e+00 2.166e-01 1.400e+00 
*LOADS
*RC g16:B 6.065e-01
*RC g12:B 6.065e-01
*RC I_3:A 6.065e-01
*RC AND4_121:D 6.065e-01
*RC AND2_154:A 6.065e-01
*RC AND2_150:A 6.065e-01
*RC AND2_146:A 6.065e-01
*RC AND2_142:A 6.065e-01
*END

*R_NET N695 2.433e-01
*DRIVER AND2_142:Z
*CELL GTECH_AND2
*C2_R1_C1 1.216e-01 1.881e-02 1.216e-01 
*LOADS
*RC XOR2_174:B 4.575e-03
*END

*R_NET N625 1.203e+00
*DRIVER g4:Z
*CELL GTECH_AND4
*C2_R1_C1 6.014e-01 9.300e-02 6.014e-01 
*LOADS
*RC AND2_146:B 1.119e-01
*RC AND2_145:B 1.119e-01
*RC AND2_144:B 1.119e-01
*RC AND2_143:B 1.119e-01
*END

*R_NET N696 2.433e-01
*DRIVER AND2_143:Z
*CELL GTECH_AND2
*C2_R1_C1 1.216e-01 1.881e-02 1.216e-01 
*LOADS
*RC XOR2_175:B 4.575e-03
*END

*R_NET N697 2.433e-01
*DRIVER AND2_144:Z
*CELL GTECH_AND2
*C2_R1_C1 1.216e-01 1.881e-02 1.216e-01 
*LOADS
*RC XOR2_176:B 4.575e-03
*END

*R_NET N698 2.433e-01
*DRIVER AND2_145:Z
*CELL GTECH_AND2
*C2_R1_C1 1.216e-01 1.881e-02 1.216e-01 
*LOADS
*RC XOR2_177:B 4.575e-03
*END

*R_NET N699 2.433e-01
*DRIVER AND2_146:Z
*CELL GTECH_AND2
*C2_R1_C1 1.216e-01 1.881e-02 1.216e-01 
*LOADS
*RC XOR2_178:B 4.575e-03
*END

*R_NET N630 1.203e+00
*DRIVER g6:Z
*CELL GTECH_AND4
*C2_R1_C1 6.014e-01 9.300e-02 6.014e-01 
*LOADS
*RC AND2_150:B 1.119e-01
*RC AND2_149:B 1.119e-01
*RC AND2_148:B 1.119e-01
*RC AND2_147:B 1.119e-01
*END

*R_NET N700 2.433e-01
*DRIVER AND2_147:Z
*CELL GTECH_AND2
*C2_R1_C1 1.216e-01 1.881e-02 1.216e-01 
*LOADS
*RC XOR2_179:B 4.575e-03
*END

*R_NET N701 2.433e-01
*DRIVER AND2_148:Z
*CELL GTECH_AND2
*C2_R1_C1 1.216e-01 1.881e-02 1.216e-01 
*LOADS
*RC XOR2_180:B 4.575e-03
*END

*R_NET N702 2.433e-01
*DRIVER AND2_149:Z
*CELL GTECH_AND2
*C2_R1_C1 1.216e-01 1.881e-02 1.216e-01 
*LOADS
*RC XOR2_181:B 4.575e-03
*END

*R_NET N703 2.433e-01
*DRIVER AND2_150:Z
*CELL GTECH_AND2
*C2_R1_C1 1.216e-01 1.881e-02 1.216e-01 
*LOADS
*RC XOR2_182:B 4.575e-03
*END

*R_NET N635 1.203e+00
*DRIVER g8:Z
*CELL GTECH_AND4
*C2_R1_C1 6.014e-01 9.300e-02 6.014e-01 
*LOADS
*RC AND2_154:B 1.119e-01
*RC AND2_153:B 1.119e-01
*RC AND2_152:B 1.119e-01
*RC AND2_151:B 1.119e-01
*END

*R_NET N704 2.433e-01
*DRIVER AND2_151:Z
*CELL GTECH_AND2
*C2_R1_C1 1.216e-01 1.881e-02 1.216e-01 
*LOADS
*RC XOR2_183:B 4.575e-03
*END

*R_NET N705 2.433e-01
*DRIVER AND2_152:Z
*CELL GTECH_AND2
*C2_R1_C1 1.216e-01 1.881e-02 1.216e-01 
*LOADS
*RC XOR2_184:B 4.575e-03
*END

*R_NET N706 2.433e-01
*DRIVER AND2_153:Z
*CELL GTECH_AND2
*C2_R1_C1 1.216e-01 1.881e-02 1.216e-01 
*LOADS
*RC XOR2_185:B 4.575e-03
*END

*R_NET N707 2.433e-01
*DRIVER AND2_154:Z
*CELL GTECH_AND2
*C2_R1_C1 1.216e-01 1.881e-02 1.216e-01 
*LOADS
*RC XOR2_186:B 4.575e-03
*END

*R_NET N406 2.362e+00
*DRIVER XOR2_77:Z
*CELL GTECH_XOR2
*C2_R1_C1 1.181e+00 1.827e-01 1.181e+00 
*LOADS
*RC g1:A 4.315e-01
*RC I_7:A 4.315e-01
*RC AND4_128:A 4.315e-01
*RC AND2_167:A 4.315e-01
*RC AND2_163:A 4.315e-01
*RC AND2_159:A 4.315e-01
*RC AND2_155:A 4.315e-01
*END

*R_NET N640 1.203e+00
*DRIVER g10:Z
*CELL GTECH_AND4
*C2_R1_C1 6.014e-01 9.300e-02 6.014e-01 
*LOADS
*RC AND2_158:B 1.119e-01
*RC AND2_157:B 1.119e-01
*RC AND2_156:B 1.119e-01
*RC AND2_155:B 1.119e-01
*END

*R_NET N708 2.433e-01
*DRIVER AND2_155:Z
*CELL GTECH_AND2
*C2_R1_C1 1.216e-01 1.881e-02 1.216e-01 
*LOADS
*RC XOR2_187:B 4.575e-03
*END

*R_NET N419 2.362e+00
*DRIVER XOR2_78:Z
*CELL GTECH_XOR2
*C2_R1_C1 1.181e+00 1.827e-01 1.181e+00 
*LOADS
*RC g5:B 4.315e-01
*RC I_4:A 4.315e-01
*RC AND4_127:B 4.315e-01
*RC AND2_168:A 4.315e-01
*RC AND2_164:A 4.315e-01
*RC AND2_160:A 4.315e-01
*RC AND2_156:A 4.315e-01
*END

*R_NET N709 2.433e-01
*DRIVER AND2_156:Z
*CELL GTECH_AND2
*C2_R1_C1 1.216e-01 1.881e-02 1.216e-01 
*LOADS
*RC XOR2_188:B 4.575e-03
*END

*R_NET N432 2.801e+00
*DRIVER XOR2_79:Z
*CELL GTECH_XOR2
*C2_R1_C1 1.400e+00 2.166e-01 1.400e+00 
*LOADS
*RC g6:A 6.065e-01
*RC g2:A 6.065e-01
*RC I_6:A 6.065e-01
*RC AND4_126:C 6.065e-01
*RC AND2_169:A 6.065e-01
*RC AND2_165:A 6.065e-01
*RC AND2_161:A 6.065e-01
*RC AND2_157:A 6.065e-01
*END

*R_NET N710 2.433e-01
*DRIVER AND2_157:Z
*CELL GTECH_AND2
*C2_R1_C1 1.216e-01 1.881e-02 1.216e-01 
*LOADS
*RC XOR2_189:B 4.575e-03
*END

*R_NET N445 2.801e+00
*DRIVER XOR2_80:Z
*CELL GTECH_XOR2
*C2_R1_C1 1.400e+00 2.166e-01 1.400e+00 
*LOADS
*RC g8:B 6.065e-01
*RC g4:B 6.065e-01
*RC I_5:A 6.065e-01
*RC AND4_125:D 6.065e-01
*RC AND2_170:A 6.065e-01
*RC AND2_166:A 6.065e-01
*RC AND2_162:A 6.065e-01
*RC AND2_158:A 6.065e-01
*END

*R_NET N711 2.433e-01
*DRIVER AND2_158:Z
*CELL GTECH_AND2
*C2_R1_C1 1.216e-01 1.881e-02 1.216e-01 
*LOADS
*RC XOR2_190:B 4.575e-03
*END

*R_NET N645 1.203e+00
*DRIVER g12:Z
*CELL GTECH_AND4
*C2_R1_C1 6.014e-01 9.300e-02 6.014e-01 
*LOADS
*RC AND2_162:B 1.119e-01
*RC AND2_161:B 1.119e-01
*RC AND2_160:B 1.119e-01
*RC AND2_159:B 1.119e-01
*END

*R_NET N712 2.433e-01
*DRIVER AND2_159:Z
*CELL GTECH_AND2
*C2_R1_C1 1.216e-01 1.881e-02 1.216e-01 
*LOADS
*RC XOR2_191:B 4.575e-03
*END

*R_NET N713 2.433e-01
*DRIVER AND2_160:Z
*CELL GTECH_AND2
*C2_R1_C1 1.216e-01 1.881e-02 1.216e-01 
*LOADS
*RC XOR2_192:B 4.575e-03
*END

*R_NET N714 2.433e-01
*DRIVER AND2_161:Z
*CELL GTECH_AND2
*C2_R1_C1 1.216e-01 1.881e-02 1.216e-01 
*LOADS
*RC XOR2_193:B 4.575e-03
*END

*R_NET N715 2.433e-01
*DRIVER AND2_162:Z
*CELL GTECH_AND2
*C2_R1_C1 1.216e-01 1.881e-02 1.216e-01 
*LOADS
*RC XOR2_194:B 4.575e-03
*END

*R_NET N650 1.203e+00
*DRIVER g14:Z
*CELL GTECH_AND4
*C2_R1_C1 6.014e-01 9.300e-02 6.014e-01 
*LOADS
*RC AND2_166:B 1.119e-01
*RC AND2_165:B 1.119e-01
*RC AND2_164:B 1.119e-01
*RC AND2_163:B 1.119e-01
*END

*R_NET N716 2.433e-01
*DRIVER AND2_163:Z
*CELL GTECH_AND2
*C2_R1_C1 1.216e-01 1.881e-02 1.216e-01 
*LOADS
*RC XOR2_195:B 4.575e-03
*END

*R_NET N717 2.433e-01
*DRIVER AND2_164:Z
*CELL GTECH_AND2
*C2_R1_C1 1.216e-01 1.881e-02 1.216e-01 
*LOADS
*RC XOR2_196:B 4.575e-03
*END

*R_NET N718 2.433e-01
*DRIVER AND2_165:Z
*CELL GTECH_AND2
*C2_R1_C1 1.216e-01 1.881e-02 1.216e-01 
*LOADS
*RC XOR2_197:B 4.575e-03
*END

*R_NET N719 2.433e-01
*DRIVER AND2_166:Z
*CELL GTECH_AND2
*C2_R1_C1 1.216e-01 1.881e-02 1.216e-01 
*LOADS
*RC XOR2_198:B 4.575e-03
*END

*R_NET N655 1.203e+00
*DRIVER g16:Z
*CELL GTECH_AND4
*C2_R1_C1 6.014e-01 9.300e-02 6.014e-01 
*LOADS
*RC AND2_170:B 1.119e-01
*RC AND2_169:B 1.119e-01
*RC AND2_168:B 1.119e-01
*RC AND2_167:B 1.119e-01
*END

*R_NET N720 2.433e-01
*DRIVER AND2_167:Z
*CELL GTECH_AND2
*C2_R1_C1 1.216e-01 1.881e-02 1.216e-01 
*LOADS
*RC XOR2_199:B 4.575e-03
*END

*R_NET N721 2.433e-01
*DRIVER AND2_168:Z
*CELL GTECH_AND2
*C2_R1_C1 1.216e-01 1.881e-02 1.216e-01 
*LOADS
*RC XOR2_200:B 4.575e-03
*END

*R_NET N722 2.433e-01
*DRIVER AND2_169:Z
*CELL GTECH_AND2
*C2_R1_C1 1.216e-01 1.881e-02 1.216e-01 
*LOADS
*RC XOR2_201:B 4.575e-03
*END

*R_NET N723 2.433e-01
*DRIVER AND2_170:Z
*CELL GTECH_AND2
*C2_R1_C1 1.216e-01 1.881e-02 1.216e-01 
*LOADS
*RC XOR2_202:B 4.575e-03
*END

*R_NET N554 1.203e+00
*DRIVER I_0:Z
*CELL GTECH_NOT
*C2_R1_C1 6.014e-01 9.300e-02 6.014e-01 
*LOADS
*RC g13:A 1.119e-01
*RC AND4_123:A 1.119e-01
*RC AND4_122:A 1.119e-01
*RC AND4_121:A 1.119e-01
*END

*R_NET N555 1.203e+00
*DRIVER I_1:Z
*CELL GTECH_NOT
*C2_R1_C1 6.014e-01 9.300e-02 6.014e-01 
*LOADS
*RC g9:B 1.119e-01
*RC AND4_124:B 1.119e-01
*RC AND4_122:B 1.119e-01
*RC AND4_121:B 1.119e-01
*END

*R_NET N556 1.565e+00
*DRIVER I_2:Z
*CELL GTECH_NOT
*C2_R1_C1 7.824e-01 1.210e-01 7.824e-01 
*LOADS
*RC g16:A 1.893e-01
*RC g12:A 1.893e-01
*RC AND4_124:C 1.893e-01
*RC AND4_123:C 1.893e-01
*RC AND4_121:C 1.893e-01
*END

*R_NET N594 2.433e-01
*DRIVER AND4_121:Z
*CELL GTECH_AND4
*C2_R1_C1 1.216e-01 1.881e-02 1.216e-01 
*LOADS
*RC OR4_129:A 4.575e-03
*END

*R_NET N559 1.565e+00
*DRIVER I_3:Z
*CELL GTECH_NOT
*C2_R1_C1 7.824e-01 1.210e-01 7.824e-01 
*LOADS
*RC g14:B 1.893e-01
*RC g10:B 1.893e-01
*RC AND4_124:D 1.893e-01
*RC AND4_123:D 1.893e-01
*RC AND4_122:D 1.893e-01
*END

*R_NET N595 2.433e-01
*DRIVER AND4_122:Z
*CELL GTECH_AND4
*C2_R1_C1 1.216e-01 1.881e-02 1.216e-01 
*LOADS
*RC OR4_129:B 4.575e-03
*END

*R_NET N596 2.433e-01
*DRIVER AND4_123:Z
*CELL GTECH_AND4
*C2_R1_C1 1.216e-01 1.881e-02 1.216e-01 
*LOADS
*RC OR4_129:C 4.575e-03
*END

*R_NET N597 2.433e-01
*DRIVER AND4_124:Z
*CELL GTECH_AND4
*C2_R1_C1 1.216e-01 1.881e-02 1.216e-01 
*LOADS
*RC OR4_129:D 4.575e-03
*END

*R_NET N570 1.203e+00
*DRIVER I_7:Z
*CELL GTECH_NOT
*C2_R1_C1 6.014e-01 9.300e-02 6.014e-01 
*LOADS
*RC g5:A 1.119e-01
*RC AND4_127:A 1.119e-01
*RC AND4_126:A 1.119e-01
*RC AND4_125:A 1.119e-01
*END

*R_NET N566 1.203e+00
*DRIVER I_4:Z
*CELL GTECH_NOT
*C2_R1_C1 6.014e-01 9.300e-02 6.014e-01 
*LOADS
*RC g1:B 1.119e-01
*RC AND4_128:B 1.119e-01
*RC AND4_126:B 1.119e-01
*RC AND4_125:B 1.119e-01
*END

*R_NET N569 1.565e+00
*DRIVER I_6:Z
*CELL GTECH_NOT
*C2_R1_C1 7.824e-01 1.210e-01 7.824e-01 
*LOADS
*RC g8:A 1.893e-01
*RC g4:A 1.893e-01
*RC AND4_128:C 1.893e-01
*RC AND4_127:C 1.893e-01
*RC AND4_125:C 1.893e-01
*END

*R_NET N598 2.433e-01
*DRIVER AND4_125:Z
*CELL GTECH_AND4
*C2_R1_C1 1.216e-01 1.881e-02 1.216e-01 
*LOADS
*RC OR4_130:A 4.575e-03
*END

*R_NET N567 1.565e+00
*DRIVER I_5:Z
*CELL GTECH_NOT
*C2_R1_C1 7.824e-01 1.210e-01 7.824e-01 
*LOADS
*RC g6:B 1.893e-01
*RC g2:B 1.893e-01
*RC AND4_128:D 1.893e-01
*RC AND4_127:D 1.893e-01
*RC AND4_126:D 1.893e-01
*END

*R_NET N599 2.433e-01
*DRIVER AND4_126:Z
*CELL GTECH_AND4
*C2_R1_C1 1.216e-01 1.881e-02 1.216e-01 
*LOADS
*RC OR4_130:B 4.575e-03
*END

*R_NET N600 2.433e-01
*DRIVER AND4_127:Z
*CELL GTECH_AND4
*C2_R1_C1 1.216e-01 1.881e-02 1.216e-01 
*LOADS
*RC OR4_130:C 4.575e-03
*END

*R_NET N601 2.433e-01
*DRIVER AND4_128:Z
*CELL GTECH_AND4
*C2_R1_C1 1.216e-01 1.881e-02 1.216e-01 
*LOADS
*RC OR4_130:D 4.575e-03
*END

*R_NET N602 1.203e+00
*DRIVER OR4_129:Z
*CELL GTECH_OR4
*C2_R1_C1 6.014e-01 9.300e-02 6.014e-01 
*LOADS
*RC g8:C 1.119e-01
*RC g6:C 1.119e-01
*RC g4:C 1.119e-01
*RC g2:C 1.119e-01
*END

*R_NET N607 1.203e+00
*DRIVER OR4_130:Z
*CELL GTECH_OR4
*C2_R1_C1 6.014e-01 9.300e-02 6.014e-01 
*LOADS
*RC g16:C 1.119e-01
*RC g14:C 1.119e-01
*RC g12:C 1.119e-01
*RC g10:C 1.119e-01
*END

*R_NET N250 5.436e-01
*DRIVER XOR2_1:Z
*CELL GTECH_XOR2
*C2_R1_C1 2.718e-01 4.203e-02 2.718e-01 
*LOADS
*RC AND1:A 2.285e-02
*RC XOR2_41:A 2.285e-02
*END

*R_NET N251 2.433e-01
*DRIVER XOR2_2:Z
*CELL GTECH_XOR2
*C2_R1_C1 1.216e-01 1.881e-02 1.216e-01 
*LOADS
*RC XOR2_41:B 4.575e-03
*END

*R_NET N252 2.433e-01
*DRIVER XOR2_3:Z
*CELL GTECH_XOR2
*C2_R1_C1 1.216e-01 1.881e-02 1.216e-01 
*LOADS
*RC XOR2_42:A 4.575e-03
*END

*R_NET N253 2.433e-01
*DRIVER XOR2_4:Z
*CELL GTECH_XOR2
*C2_R1_C1 1.216e-01 1.881e-02 1.216e-01 
*LOADS
*RC XOR2_42:B 4.575e-03
*END

*R_NET N254 2.433e-01
*DRIVER XOR2_5:Z
*CELL GTECH_XOR2
*C2_R1_C1 1.216e-01 1.881e-02 1.216e-01 
*LOADS
*RC XOR2_43:A 4.575e-03
*END

*R_NET N255 2.433e-01
*DRIVER XOR2_6:Z
*CELL GTECH_XOR2
*C2_R1_C1 1.216e-01 1.881e-02 1.216e-01 
*LOADS
*RC XOR2_43:B 4.575e-03
*END

*R_NET N256 2.433e-01
*DRIVER XOR2_7:Z
*CELL GTECH_XOR2
*C2_R1_C1 1.216e-01 1.881e-02 1.216e-01 
*LOADS
*RC XOR2_44:A 4.575e-03
*END

*R_NET N257 2.433e-01
*DRIVER XOR2_8:Z
*CELL GTECH_XOR2
*C2_R1_C1 1.216e-01 1.881e-02 1.216e-01 
*LOADS
*RC XOR2_44:B 4.575e-03
*END

*R_NET N258 2.433e-01
*DRIVER XOR2_9:Z
*CELL GTECH_XOR2
*C2_R1_C1 1.216e-01 1.881e-02 1.216e-01 
*LOADS
*RC XOR2_45:A 4.575e-03
*END

*R_NET N259 2.433e-01
*DRIVER XOR2_10:Z
*CELL GTECH_XOR2
*C2_R1_C1 1.216e-01 1.881e-02 1.216e-01 
*LOADS
*RC XOR2_45:B 4.575e-03
*END

*R_NET N260 2.433e-01
*DRIVER XOR2_11:Z
*CELL GTECH_XOR2
*C2_R1_C1 1.216e-01 1.881e-02 1.216e-01 
*LOADS
*RC XOR2_46:A 4.575e-03
*END

*R_NET N261 2.433e-01
*DRIVER XOR2_12:Z
*CELL GTECH_XOR2
*C2_R1_C1 1.216e-01 1.881e-02 1.216e-01 
*LOADS
*RC XOR2_46:B 4.575e-03
*END

*R_NET N262 2.433e-01
*DRIVER XOR2_13:Z
*CELL GTECH_XOR2
*C2_R1_C1 1.216e-01 1.881e-02 1.216e-01 
*LOADS
*RC XOR2_47:A 4.575e-03
*END

*R_NET N263 2.433e-01
*DRIVER XOR2_14:Z
*CELL GTECH_XOR2
*C2_R1_C1 1.216e-01 1.881e-02 1.216e-01 
*LOADS
*RC XOR2_47:B 4.575e-03
*END

*R_NET N264 2.433e-01
*DRIVER XOR2_15:Z
*CELL GTECH_XOR2
*C2_R1_C1 1.216e-01 1.881e-02 1.216e-01 
*LOADS
*RC XOR2_48:A 4.575e-03
*END

*R_NET N265 2.433e-01
*DRIVER XOR2_16:Z
*CELL GTECH_XOR2
*C2_R1_C1 1.216e-01 1.881e-02 1.216e-01 
*LOADS
*RC XOR2_48:B 4.575e-03
*END

*R_NET N274 2.433e-01
*DRIVER XOR2_25:Z
*CELL GTECH_XOR2
*C2_R1_C1 1.216e-01 1.881e-02 1.216e-01 
*LOADS
*RC XOR2_49:A 4.575e-03
*END

*R_NET N275 2.433e-01
*DRIVER XOR2_26:Z
*CELL GTECH_XOR2
*C2_R1_C1 1.216e-01 1.881e-02 1.216e-01 
*LOADS
*RC XOR2_49:B 4.575e-03
*END

*R_NET N276 2.433e-01
*DRIVER XOR2_27:Z
*CELL GTECH_XOR2
*C2_R1_C1 1.216e-01 1.881e-02 1.216e-01 
*LOADS
*RC XOR2_50:A 4.575e-03
*END

*R_NET N277 2.433e-01
*DRIVER XOR2_28:Z
*CELL GTECH_XOR2
*C2_R1_C1 1.216e-01 1.881e-02 1.216e-01 
*LOADS
*RC XOR2_50:B 4.575e-03
*END

*R_NET N278 2.433e-01
*DRIVER XOR2_29:Z
*CELL GTECH_XOR2
*C2_R1_C1 1.216e-01 1.881e-02 1.216e-01 
*LOADS
*RC XOR2_51:A 4.575e-03
*END

*R_NET N279 2.433e-01
*DRIVER XOR2_30:Z
*CELL GTECH_XOR2
*C2_R1_C1 1.216e-01 1.881e-02 1.216e-01 
*LOADS
*RC XOR2_51:B 4.575e-03
*END

*R_NET N280 2.433e-01