*SPEF "IEEE 1481-1999"
*DESIGN "s420"
*DATE "Tue Oct 25 21:58:05 2022"
*VENDOR "SYNOPSYS INC"
*PROGRAM "Synopsys Design Compiler"
*VERSION "S-2021.06-SP5-3"
*DESIGN_FLOW "SYNTHESIS"
*DIVIDER /
*DELIMITER :
*BUS_DELIMITER []
*T_UNIT 1.0 NS
*C_UNIT 0.0010 PF
*R_UNIT 1000.0 KOHM
*L_UNIT 1.0 HENRY

*PORTS

CK I *L 0.000e+00 *S 0.000e+00 0.000e+00 
C_0 I *L 0.000e+00 *S 0.000e+00 0.000e+00 
C_1 I *L 0.000e+00 *S 0.000e+00 0.000e+00 
C_10 I *L 0.000e+00 *S 0.000e+00 0.000e+00 
C_11 I *L 0.000e+00 *S 0.000e+00 0.000e+00 
C_12 I *L 0.000e+00 *S 0.000e+00 0.000e+00 
C_13 I *L 0.000e+00 *S 0.000e+00 0.000e+00 
C_14 I *L 0.000e+00 *S 0.000e+00 0.000e+00 
C_15 I *L 0.000e+00 *S 0.000e+00 0.000e+00 
C_16 I *L 0.000e+00 *S 0.000e+00 0.000e+00 
C_2 I *L 0.000e+00 *S 0.000e+00 0.000e+00 
C_3 I *L 0.000e+00 *S 0.000e+00 0.000e+00 
C_4 I *L 0.000e+00 *S 0.000e+00 0.000e+00 
C_5 I *L 0.000e+00 *S 0.000e+00 0.000e+00 
C_6 I *L 0.000e+00 *S 0.000e+00 0.000e+00 
C_7 I *L 0.000e+00 *S 0.000e+00 0.000e+00 
C_8 I *L 0.000e+00 *S 0.000e+00 0.000e+00 
C_9 I *L 0.000e+00 *S 0.000e+00 0.000e+00 
P_0 I *L 0.000e+00 *S 0.000e+00 0.000e+00 
Z O *L 0.000e+00 *S 0.000e+00 0.000e+00 

*R_NET N0 2.433e-01
*DRIVER NAND2_0:Z
*CELL GTECH_AND2
*C2_R1_C1 1.216e-01 1.881e-02 1.216e-01 
*LOADS
*RC I_48:A 4.575e-03
*END

*R_NET N1 2.433e-01
*DRIVER NAND2_1:Z
*CELL GTECH_AND2
*C2_R1_C1 1.216e-01 1.881e-02 1.216e-01 
*LOADS
*RC I_49:A 4.575e-03
*END

*R_NET N2 2.433e-01
*DRIVER NAND2_2:Z
*CELL GTECH_AND2
*C2_R1_C1 1.216e-01 1.881e-02 1.216e-01 
*LOADS
*RC I_50:A 4.575e-03
*END

*R_NET N3 2.433e-01
*DRIVER NAND2_3:Z
*CELL GTECH_AND2
*C2_R1_C1 1.216e-01 1.881e-02 1.216e-01 
*LOADS
*RC I_51:A 4.575e-03
*END

*R_NET N4 2.433e-01
*DRIVER NAND2_4:Z
*CELL GTECH_AND2
*C2_R1_C1 1.216e-01 1.881e-02 1.216e-01 
*LOADS
*RC I_52:A 4.575e-03
*END

*R_NET N5 2.433e-01
*DRIVER NAND2_5:Z
*CELL GTECH_AND2
*C2_R1_C1 1.216e-01 1.881e-02 1.216e-01 
*LOADS
*RC I_53:A 4.575e-03
*END

*R_NET N6 2.433e-01
*DRIVER NAND2_6:Z
*CELL GTECH_AND2
*C2_R1_C1 1.216e-01 1.881e-02 1.216e-01 
*LOADS
*RC I_54:A 4.575e-03
*END

*R_NET N7 2.433e-01
*DRIVER NAND2_7:Z
*CELL GTECH_AND2
*C2_R1_C1 1.216e-01 1.881e-02 1.216e-01 
*LOADS
*RC I_55:A 4.575e-03
*END

*R_NET N8 2.433e-01
*DRIVER NAND2_8:Z
*CELL GTECH_AND2
*C2_R1_C1 1.216e-01 1.881e-02 1.216e-01 
*LOADS
*RC I_56:A 4.575e-03
*END

*R_NET N9 2.433e-01
*DRIVER NAND2_9:Z
*CELL GTECH_AND2
*C2_R1_C1 1.216e-01 1.881e-02 1.216e-01 
*LOADS
*RC I_57:A 4.575e-03
*END

*R_NET N10 2.433e-01
*DRIVER NAND2_10:Z
*CELL GTECH_AND2
*C2_R1_C1 1.216e-01 1.881e-02 1.216e-01 
*LOADS
*RC I_58:A 4.575e-03
*END

*R_NET N11 2.433e-01
*DRIVER NAND2_11:Z
*CELL GTECH_AND2
*C2_R1_C1 1.216e-01 1.881e-02 1.216e-01 
*LOADS
*RC I_59:A 4.575e-03
*END

*R_NET N12 2.433e-01
*DRIVER NAND2_12:Z
*CELL GTECH_AND2
*C2_R1_C1 1.216e-01 1.881e-02 1.216e-01 
*LOADS
*RC I_60:A 4.575e-03
*END

*R_NET N13 2.433e-01
*DRIVER NAND2_13:Z
*CELL GTECH_AND2
*C2_R1_C1 1.216e-01 1.881e-02 1.216e-01 
*LOADS
*RC I_61:A 4.575e-03
*END

*R_NET N14 2.433e-01
*DRIVER NAND2_14:Z
*CELL GTECH_AND2
*C2_R1_C1 1.216e-01 1.881e-02 1.216e-01 
*LOADS
*RC I_62:A 4.575e-03
*END

*R_NET N15 2.433e-01
*DRIVER NAND2_15:Z
*CELL GTECH_AND2
*C2_R1_C1 1.216e-01 1.881e-02 1.216e-01 
*LOADS
*RC I_63:A 4.575e-03
*END

*R_NET N16 2.433e-01
*DRIVER NAND2_16:Z
*CELL GTECH_AND2
*C2_R1_C1 1.216e-01 1.881e-02 1.216e-01 
*LOADS
*RC I_64:A 4.575e-03
*END

*R_NET N17 2.433e-01
*DRIVER NAND2_17:Z
*CELL GTECH_AND2
*C2_R1_C1 1.216e-01 1.881e-02 1.216e-01 
*LOADS
*RC I_65:A 4.575e-03
*END

*R_NET N18 2.433e-01
*DRIVER NAND2_18:Z
*CELL GTECH_AND2
*C2_R1_C1 1.216e-01 1.881e-02 1.216e-01 
*LOADS
*RC I_66:A 4.575e-03
*END

*R_NET N19 2.433e-01
*DRIVER NAND2_19:Z
*CELL GTECH_AND2
*C2_R1_C1 1.216e-01 1.881e-02 1.216e-01 
*LOADS
*RC I_67:A 4.575e-03
*END

*R_NET N20 2.433e-01
*DRIVER NAND2_20:Z
*CELL GTECH_AND2
*C2_R1_C1 1.216e-01 1.881e-02 1.216e-01 
*LOADS
*RC I_68:A 4.575e-03
*END

*R_NET N21 2.433e-01
*DRIVER NAND2_21:Z
*CELL GTECH_AND2
*C2_R1_C1 1.216e-01 1.881e-02 1.216e-01 
*LOADS
*RC I_69:A 4.575e-03
*END

*R_NET N22 2.433e-01
*DRIVER NAND2_22:Z
*CELL GTECH_AND2
*C2_R1_C1 1.216e-01 1.881e-02 1.216e-01 
*LOADS
*RC I_70:A 4.575e-03
*END

*R_NET N23 2.433e-01
*DRIVER NAND2_23:Z
*CELL GTECH_AND2
*C2_R1_C1 1.216e-01 1.881e-02 1.216e-01 
*LOADS
*RC I_71:A 4.575e-03
*END

*R_NET N24 2.433e-01
*DRIVER NAND2_24:Z
*CELL GTECH_AND2
*C2_R1_C1 1.216e-01 1.881e-02 1.216e-01 
*LOADS
*RC I_72:A 4.575e-03
*END

*R_NET N25 2.433e-01
*DRIVER NAND3_0:Z
*CELL GTECH_AND3
*C2_R1_C1 1.216e-01 1.881e-02 1.216e-01 
*LOADS
*RC I_73:A 4.575e-03
*END

*R_NET N26 2.433e-01
*DRIVER NAND3_1:Z
*CELL GTECH_AND3
*C2_R1_C1 1.216e-01 1.881e-02 1.216e-01 
*LOADS
*RC I_74:A 4.575e-03
*END

*R_NET N27 2.433e-01
*DRIVER NAND3_2:Z
*CELL GTECH_AND3
*C2_R1_C1 1.216e-01 1.881e-02 1.216e-01 
*LOADS
*RC I_75:A 4.575e-03
*END

*R_NET N28 2.433e-01
*DRIVER NAND3_3:Z
*CELL GTECH_AND3
*C2_R1_C1 1.216e-01 1.881e-02 1.216e-01 
*LOADS
*RC I_76:A 4.575e-03
*END

*R_NET N29 2.433e-01
*DRIVER I_77:Z
*CELL GTECH_NOT
*C2_R1_C1 1.216e-01 1.881e-02 1.216e-01 
*LOADS
*RC NOR2_0:A 4.575e-03
*END

*R_NET N30 2.433e-01
*DRIVER I_78:Z
*CELL GTECH_NOT
*C2_R1_C1 1.216e-01 1.881e-02 1.216e-01 
*LOADS
*RC NOR2_0:B 4.575e-03
*END

*R_NET N31 2.433e-01
*DRIVER I_79:Z
*CELL GTECH_NOT
*C2_R1_C1 1.216e-01 1.881e-02 1.216e-01 
*LOADS
*RC NOR3_0:A 4.575e-03
*END

*R_NET N32 2.433e-01
*DRIVER I_80:Z
*CELL GTECH_NOT
*C2_R1_C1 1.216e-01 1.881e-02 1.216e-01 
*LOADS
*RC NOR3_0:B 4.575e-03
*END

*R_NET N33 2.433e-01
*DRIVER I_81:Z
*CELL GTECH_NOT
*C2_R1_C1 1.216e-01 1.881e-02 1.216e-01 
*LOADS
*RC NOR3_0:C 4.575e-03
*END

*R_NET N34 2.433e-01
*DRIVER I_82:Z
*CELL GTECH_NOT
*C2_R1_C1 1.216e-01 1.881e-02 1.216e-01 
*LOADS
*RC NOR2_1:A 4.575e-03
*END

*R_NET N35 2.433e-01
*DRIVER I_83:Z
*CELL GTECH_NOT
*C2_R1_C1 1.216e-01 1.881e-02 1.216e-01 
*LOADS
*RC NOR2_1:B 4.575e-03
*END

*R_NET N36 2.433e-01
*DRIVER I_84:Z
*CELL GTECH_NOT
*C2_R1_C1 1.216e-01 1.881e-02 1.216e-01 
*LOADS
*RC NOR2_2:A 4.575e-03
*END

*R_NET N37 2.433e-01
*DRIVER I_85:Z
*CELL GTECH_NOT
*C2_R1_C1 1.216e-01 1.881e-02 1.216e-01 
*LOADS
*RC NOR2_2:B 4.575e-03
*END

*R_NET N38 2.433e-01
*DRIVER I_86:Z
*CELL GTECH_NOT
*C2_R1_C1 1.216e-01 1.881e-02 1.216e-01 
*LOADS
*RC NOR3_1:A 4.575e-03
*END

*R_NET N39 2.433e-01
*DRIVER I_87:Z
*CELL GTECH_NOT
*C2_R1_C1 1.216e-01 1.881e-02 1.216e-01 
*LOADS
*RC NOR3_1:B 4.575e-03
*END

*R_NET N40 2.433e-01
*DRIVER I_88:Z
*CELL GTECH_NOT
*C2_R1_C1 1.216e-01 1.881e-02 1.216e-01 
*LOADS
*RC NOR3_1:C 4.575e-03
*END

*R_NET N41 2.433e-01
*DRIVER I_89:Z
*CELL GTECH_NOT
*C2_R1_C1 1.216e-01 1.881e-02 1.216e-01 
*LOADS
*RC NOR2_3:A 4.575e-03
*END

*R_NET N42 2.433e-01
*DRIVER I_90:Z
*CELL GTECH_NOT
*C2_R1_C1 1.216e-01 1.881e-02 1.216e-01 
*LOADS
*RC NOR2_3:B 4.575e-03
*END

*R_NET N43 2.433e-01
*DRIVER I_91:Z
*CELL GTECH_NOT
*C2_R1_C1 1.216e-01 1.881e-02 1.216e-01 
*LOADS
*RC NOR2_4:A 4.575e-03
*END

*R_NET N44 2.433e-01
*DRIVER I_92:Z
*CELL GTECH_NOT
*C2_R1_C1 1.216e-01 1.881e-02 1.216e-01 
*LOADS
*RC NOR2_4:B 4.575e-03
*END

*R_NET N45 2.433e-01
*DRIVER I_93:Z
*CELL GTECH_NOT
*C2_R1_C1 1.216e-01 1.881e-02 1.216e-01 
*LOADS
*RC NOR3_2:A 4.575e-03
*END

*R_NET N46 2.433e-01
*DRIVER I_94:Z
*CELL GTECH_NOT
*C2_R1_C1 1.216e-01 1.881e-02 1.216e-01 
*LOADS
*RC NOR3_2:B 4.575e-03
*END

*R_NET N47 2.433e-01
*DRIVER I_95:Z
*CELL GTECH_NOT
*C2_R1_C1 1.216e-01 1.881e-02 1.216e-01 
*LOADS
*RC NOR3_2:C 4.575e-03
*END

*R_NET N48 2.433e-01
*DRIVER I_96:Z
*CELL GTECH_NOT
*C2_R1_C1 1.216e-01 1.881e-02 1.216e-01 
*LOADS
*RC NOR2_5:A 4.575e-03
*END

*R_NET N49 2.433e-01
*DRIVER I_97:Z
*CELL GTECH_NOT
*C2_R1_C1 1.216e-01 1.881e-02 1.216e-01 
*LOADS
*RC NOR2_5:B 4.575e-03
*END

*R_NET N50 2.433e-01
*DRIVER I_98:Z
*CELL GTECH_NOT
*C2_R1_C1 1.216e-01 1.881e-02 1.216e-01 
*LOADS
*RC NOR2_6:A 4.575e-03
*END

*R_NET N51 2.433e-01
*DRIVER I_99:Z
*CELL GTECH_NOT
*C2_R1_C1 1.216e-01 1.881e-02 1.216e-01 
*LOADS
*RC NOR2_6:B 4.575e-03
*END

*R_NET N52 2.433e-01
*DRIVER I_100:Z
*CELL GTECH_NOT
*C2_R1_C1 1.216e-01 1.881e-02 1.216e-01 
*LOADS
*RC NOR2_7:A 4.575e-03
*END

*R_NET N53 2.433e-01
*DRIVER I_101:Z
*CELL GTECH_NOT
*C2_R1_C1 1.216e-01 1.881e-02 1.216e-01 
*LOADS
*RC NOR2_7:B 4.575e-03
*END

*R_NET N54 2.433e-01
*DRIVER I_102:Z
*CELL GTECH_NOT
*C2_R1_C1 1.216e-01 1.881e-02 1.216e-01 
*LOADS
*RC NOR2_8:A 4.575e-03
*END

*R_NET N55 2.433e-01
*DRIVER I_103:Z
*CELL GTECH_NOT
*C2_R1_C1 1.216e-01 1.881e-02 1.216e-01 
*LOADS
*RC NOR2_8:B 4.575e-03
*END

*R_NET N56 2.433e-01
*DRIVER I_104:Z
*CELL GTECH_NOT
*C2_R1_C1 1.216e-01 1.881e-02 1.216e-01 
*LOADS
*RC NOR2_9:A 4.575e-03
*END

*R_NET N57 2.433e-01
*DRIVER I_105:Z
*CELL GTECH_NOT
*C2_R1_C1 1.216e-01 1.881e-02 1.216e-01 
*LOADS
*RC NOR2_9:B 4.575e-03
*END

*R_NET N58 2.433e-01
*DRIVER I_106:Z
*CELL GTECH_NOT
*C2_R1_C1 1.216e-01 1.881e-02 1.216e-01 
*LOADS
*RC NOR2_10:A 4.575e-03
*END

*R_NET N59 2.433e-01
*DRIVER I_107:Z
*CELL GTECH_NOT
*C2_R1_C1 1.216e-01 1.881e-02 1.216e-01 
*LOADS
*RC NOR2_10:B 4.575e-03
*END

*R_NET N60 2.433e-01
*DRIVER I_108:Z
*CELL GTECH_NOT
*C2_R1_C1 1.216e-01 1.881e-02 1.216e-01 
*LOADS
*RC NOR3_3:A 4.575e-03
*END

*R_NET N61 2.433e-01
*DRIVER I_109:Z
*CELL GTECH_NOT
*C2_R1_C1 1.216e-01 1.881e-02 1.216e-01 
*LOADS
*RC NOR3_3:B 4.575e-03
*END

*R_NET N62 2.433e-01
*DRIVER I_110:Z
*CELL GTECH_NOT
*C2_R1_C1 1.216e-01 1.881e-02 1.216e-01 
*LOADS
*RC NOR3_3:C 4.575e-03
*END

*R_NET N63 2.433e-01
*DRIVER I_111:Z
*CELL GTECH_NOT
*C2_R1_C1 1.216e-01 1.881e-02 1.216e-01 
*LOADS
*RC NOR4_0:A 4.575e-03
*END

*R_NET N64 2.433e-01
*DRIVER I_112:Z
*CELL GTECH_NOT
*C2_R1_C1 1.216e-01 1.881e-02 1.216e-01 
*LOADS
*RC NOR4_0:B 4.575e-03
*END

*R_NET N65 2.433e-01
*DRIVER I_113:Z
*CELL GTECH_NOT
*C2_R1_C1 1.216e-01 1.881e-02 1.216e-01 
*LOADS
*RC NOR4_0:C 4.575e-03
*END

*R_NET N66 2.433e-01
*DRIVER I_114:Z
*CELL GTECH_NOT
*C2_R1_C1 1.216e-01 1.881e-02 1.216e-01 
*LOADS
*RC NOR4_0:D 4.575e-03
*END

*R_NET N67 2.433e-01
*DRIVER I_115:Z
*CELL GTECH_NOT
*C2_R1_C1 1.216e-01 1.881e-02 1.216e-01 
*LOADS
*RC NOR2_11:A 4.575e-03
*END

*R_NET N68 2.433e-01
*DRIVER I_116:Z
*CELL GTECH_NOT
*C2_R1_C1 1.216e-01 1.881e-02 1.216e-01 
*LOADS
*RC NOR2_11:B 4.575e-03
*END

*R_NET N69 2.433e-01
*DRIVER I_117:Z
*CELL GTECH_NOT
*C2_R1_C1 1.216e-01 1.881e-02 1.216e-01 
*LOADS
*RC NOR2_12:A 4.575e-03
*END

*R_NET N70 2.433e-01
*DRIVER I_118:Z
*CELL GTECH_NOT
*C2_R1_C1 1.216e-01 1.881e-02 1.216e-01 
*LOADS
*RC NOR2_12:B 4.575e-03
*END

*R_NET N71 2.433e-01
*DRIVER I_119:Z
*CELL GTECH_NOT
*C2_R1_C1 1.216e-01 1.881e-02 1.216e-01 
*LOADS
*RC NOR2_13:A 4.575e-03
*END

*R_NET N72 2.433e-01
*DRIVER I_120:Z
*CELL GTECH_NOT
*C2_R1_C1 1.216e-01 1.881e-02 1.216e-01 
*LOADS
*RC NOR2_13:B 4.575e-03
*END

*R_NET N73 2.433e-01
*DRIVER I_121:Z
*CELL GTECH_NOT
*C2_R1_C1 1.216e-01 1.881e-02 1.216e-01 
*LOADS
*RC NOR3_4:A 4.575e-03
*END

*R_NET N74 2.433e-01
*DRIVER I_122:Z
*CELL GTECH_NOT
*C2_R1_C1 1.216e-01 1.881e-02 1.216e-01 
*LOADS
*RC NOR3_4:B 4.575e-03
*END

*R_NET N75 2.433e-01
*DRIVER I_123:Z
*CELL GTECH_NOT
*C2_R1_C1 1.216e-01 1.881e-02 1.216e-01 
*LOADS
*RC NOR3_4:C 4.575e-03
*END

*R_NET N76 2.433e-01
*DRIVER I_124:Z
*CELL GTECH_NOT
*C2_R1_C1 1.216e-01 1.881e-02 1.216e-01 
*LOADS
*RC NOR4_1:A 4.575e-03
*END

*R_NET N77 2.433e-01
*DRIVER I_125:Z
*CELL GTECH_NOT
*C2_R1_C1 1.216e-01 1.881e-02 1.216e-01 
*LOADS
*RC NOR4_1:B 4.575e-03
*END

*R_NET N78 2.433e-01
*DRIVER I_126:Z
*CELL GTECH_NOT
*C2_R1_C1 1.216e-01 1.881e-02 1.216e-01 
*LOADS
*RC NOR4_1:C 4.575e-03
*END

*R_NET N79 2.433e-01
*DRIVER I_127:Z
*CELL GTECH_NOT
*C2_R1_C1 1.216e-01 1.881e-02 1.216e-01 
*LOADS
*RC NOR4_1:D 4.575e-03
*END

*R_NET N80 2.433e-01
*DRIVER I_128:Z
*CELL GTECH_NOT
*C2_R1_C1 1.216e-01 1.881e-02 1.216e-01 
*LOADS
*RC NOR2_14:A 4.575e-03
*END

*R_NET N81 2.433e-01
*DRIVER I_129:Z
*CELL GTECH_NOT
*C2_R1_C1 1.216e-01 1.881e-02 1.216e-01 
*LOADS
*RC NOR2_14:B 4.575e-03
*END

*R_NET N82 2.433e-01
*DRIVER I_130:Z
*CELL GTECH_NOT
*C2_R1_C1 1.216e-01 1.881e-02 1.216e-01 
*LOADS
*RC NOR2_15:A 4.575e-03
*END

*R_NET N83 2.433e-01
*DRIVER I_131:Z
*CELL GTECH_NOT
*C2_R1_C1 1.216e-01 1.881e-02 1.216e-01 
*LOADS
*RC NOR2_15:B 4.575e-03
*END

*R_NET N84 2.433e-01
*DRIVER I_132:Z
*CELL GTECH_NOT
*C2_R1_C1 1.216e-01 1.881e-02 1.216e-01 
*LOADS
*RC NOR2_16:A 4.575e-03
*END

*R_NET N85 2.433e-01
*DRIVER I_133:Z
*CELL GTECH_NOT
*C2_R1_C1 1.216e-01 1.881e-02 1.216e-01 
*LOADS
*RC NOR2_16:B 4.575e-03
*END

*R_NET N86 2.433e-01
*DRIVER I_134:Z
*CELL GTECH_NOT
*C2_R1_C1 1.216e-01 1.881e-02 1.216e-01 
*LOADS
*RC NOR3_5:A 4.575e-03
*END

*R_NET N87 2.433e-01
*DRIVER I_135:Z
*CELL GTECH_NOT
*C2_R1_C1 1.216e-01 1.881e-02 1.216e-01 
*LOADS
*RC NOR3_5:B 4.575e-03
*END

*R_NET N88 2.433e-01
*DRIVER I_136:Z
*CELL GTECH_NOT
*C2_R1_C1 1.216e-01 1.881e-02 1.216e-01 
*LOADS
*RC NOR3_5:C 4.575e-03
*END

*R_NET N89 2.433e-01
*DRIVER I_137:Z
*CELL GTECH_NOT
*C2_R1_C1 1.216e-01 1.881e-02 1.216e-01 
*LOADS
*RC NOR4_2:A 4.575e-03
*END

*R_NET N90 2.433e-01
*DRIVER I_138:Z
*CELL GTECH_NOT
*C2_R1_C1 1.216e-01 1.881e-02 1.216e-01 
*LOADS
*RC NOR4_2:B 4.575e-03
*END

*R_NET N91 2.433e-01
*DRIVER I_139:Z
*CELL GTECH_NOT
*C2_R1_C1 1.216e-01 1.881e-02 1.216e-01 
*LOADS
*RC NOR4_2:C 4.575e-03
*END

*R_NET N92 2.433e-01
*DRIVER I_140:Z
*CELL GTECH_NOT
*C2_R1_C1 1.216e-01 1.881e-02 1.216e-01 
*LOADS
*RC NOR4_2:D 4.575e-03
*END

*R_NET N93 2.433e-01
*DRIVER I_141:Z
*CELL GTECH_NOT
*C2_R1_C1 1.216e-01 1.881e-02 1.216e-01 
*LOADS
*RC NOR2_17:A 4.575e-03
*END

*R_NET N94 2.433e-01
*DRIVER I_142:Z
*CELL GTECH_NOT
*C2_R1_C1 1.216e-01 1.881e-02 1.216e-01 
*LOADS
*RC NOR2_17:B 4.575e-03
*END

*R_NET N95 2.433e-01
*DRIVER I_143:Z
*CELL GTECH_NOT
*C2_R1_C1 1.216e-01 1.881e-02 1.216e-01 
*LOADS
*RC NOR2_18:A 4.575e-03
*END

*R_NET N96 2.433e-01
*DRIVER I_144:Z
*CELL GTECH_NOT
*C2_R1_C1 1.216e-01 1.881e-02 1.216e-01 
*LOADS
*RC NOR2_18:B 4.575e-03
*END

*R_NET N97 2.433e-01
*DRIVER I_145:Z
*CELL GTECH_NOT
*C2_R1_C1 1.216e-01 1.881e-02 1.216e-01 
*LOADS
*RC NOR2_19:A 4.575e-03
*END

*R_NET N98 2.433e-01
*DRIVER I_146:Z
*CELL GTECH_NOT
*C2_R1_C1 1.216e-01 1.881e-02 1.216e-01 
*LOADS
*RC NOR2_19:B 4.575e-03
*END

*R_NET N99 2.433e-01
*DRIVER I_147:Z
*CELL GTECH_NOT
*C2_R1_C1 1.216e-01 1.881e-02 1.216e-01 
*LOADS
*RC NOR3_6:A 4.575e-03
*END

*R_NET N100 2.433e-01
*DRIVER I_148:Z
*CELL GTECH_NOT
*C2_R1_C1 1.216e-01 1.881e-02 1.216e-01 
*LOADS
*RC NOR3_6:B 4.575e-03
*END

*R_NET N101 2.433e-01
*DRIVER I_149:Z
*CELL GTECH_NOT
*C2_R1_C1 1.216e-01 1.881e-02 1.216e-01 
*LOADS
*RC NOR3_6:C 4.575e-03
*END

*R_NET N102 2.433e-01
*DRIVER I_150:Z
*CELL GTECH_NOT
*C2_R1_C1 1.216e-01 1.881e-02 1.216e-01 
*LOADS
*RC NOR2_20:A 4.575e-03
*END

*R_NET N103 2.433e-01
*DRIVER I_151:Z
*CELL GTECH_NOT
*C2_R1_C1 1.216e-01 1.881e-02 1.216e-01 
*LOADS
*RC NOR2_20:B 4.575e-03
*END

*R_NET N104 2.433e-01
*DRIVER I_152:Z
*CELL GTECH_NOT
*C2_R1_C1 1.216e-01 1.881e-02 1.216e-01 
*LOADS
*RC NOR2_21:A 4.575e-03
*END

*R_NET N105 2.433e-01
*DRIVER I_153:Z
*CELL GTECH_NOT
*C2_R1_C1 1.216e-01 1.881e-02 1.216e-01 
*LOADS
*RC NOR2_21:B 4.575e-03
*END

*R_NET N106 2.433e-01
*DRIVER I_154:Z
*CELL GTECH_NOT
*C2_R1_C1 1.216e-01 1.881e-02 1.216e-01 
*LOADS
*RC NOR2_22:A 4.575e-03
*END

*R_NET N107 2.433e-01
*DRIVER I_155:Z
*CELL GTECH_NOT
*C2_R1_C1 1.216e-01 1.881e-02 1.216e-01 
*LOADS
*RC NOR2_22:B 4.575e-03
*END

*R_NET N108 2.433e-01
*DRIVER I_156:Z
*CELL GTECH_NOT
*C2_R1_C1 1.216e-01 1.881e-02 1.216e-01 
*LOADS
*RC NOR2_23:A 4.575e-03
*END

*R_NET N109 2.433e-01
*DRIVER I_157:Z
*CELL GTECH_NOT
*C2_R1_C1 1.216e-01 1.881e-02 1.216e-01 
*LOADS
*RC NOR2_23:B 4.575e-03
*END

*R_NET CK 7.479e+00
*DRIVER CK
*CELL NULL
*C2_R1_C1 3.739e+00 5.783e-01 3.739e+00 
*LOADS
*RC DFF_15/Q_reg:clocked_on 4.325e+00
*RC DFF_14/Q_reg:clocked_on 4.325e+00
*RC DFF_13/Q_reg:clocked_on 4.325e+00
*RC DFF_12/Q_reg:clocked_on 4.325e+00
*RC DFF_11/Q_reg:clocked_on 4.325e+00
*RC DFF_10/Q_reg:clocked_on 4.325e+00
*RC DFF_9/Q_reg:clocked_on 4.325e+00
*RC DFF_8/Q_reg:clocked_on 4.325e+00
*RC DFF_7/Q_reg:clocked_on 4.325e+00
*RC DFF_6/Q_reg:clocked_on 4.325e+00
*RC DFF_5/Q_reg:clocked_on 4.325e+00
*RC DFF_4/Q_reg:clocked_on 4.325e+00
*RC DFF_3/Q_reg:clocked_on 4.325e+00
*RC DFF_2/Q_reg:clocked_on 4.325e+00
*RC DFF_1/Q_reg:clocked_on 4.325e+00
*RC DFF_0/Q_reg:clocked_on 4.325e+00
*END

*R_NET C_0 2.433e-01
*DRIVER C_0
*CELL NULL
*C2_R1_C1 1.216e-01 1.881e-02 1.216e-01 
*LOADS
*RC AND2_41:B 4.575e-03
*END

*R_NET C_1 2.433e-01
*DRIVER C_1
*CELL NULL
*C2_R1_C1 1.216e-01 1.881e-02 1.216e-01 
*LOADS
*RC AND2_40:B 4.575e-03
*END

*R_NET C_10 2.433e-01
*DRIVER C_10
*CELL NULL
*C2_R1_C1 1.216e-01 1.881e-02 1.216e-01 
*LOADS
*RC I_42:A 4.575e-03
*END

*R_NET C_11 2.433e-01
*DRIVER C_11
*CELL NULL
*C2_R1_C1 1.216e-01 1.881e-02 1.216e-01 
*LOADS
*RC I_43:A 4.575e-03
*END

*R_NET C_12 2.433e-01
*DRIVER C_12
*CELL NULL
*C2_R1_C1 1.216e-01 1.881e-02 1.216e-01 
*LOADS
*RC AND2_47:B 4.575e-03
*END

*R_NET C_13 2.433e-01
*DRIVER C_13
*CELL NULL
*C2_R1_C1 1.216e-01 1.881e-02 1.216e-01 
*LOADS
*RC AND2_46:B 4.575e-03
*END

*R_NET C_14 2.433e-01
*DRIVER C_14
*CELL NULL
*C2_R1_C1 1.216e-01 1.881e-02 1.216e-01 
*LOADS
*RC I_46:A 4.575e-03
*END

*R_NET C_15 2.433e-01
*DRIVER C_15
*CELL NULL
*C2_R1_C1 1.216e-01 1.881e-02 1.216e-01 
*LOADS
*RC I_47:A 4.575e-03
*END

*R_NET C_16 2.433e-01
*DRIVER C_16
*CELL NULL
*C2_R1_C1 1.216e-01 1.881e-02 1.216e-01 
*LOADS
*RC AND2_48:B 4.575e-03
*END

*R_NET C_2 2.433e-01
*DRIVER C_2
*CELL NULL
*C2_R1_C1 1.216e-01 1.881e-02 1.216e-01 
*LOADS
*RC I_34:A 4.575e-03
*END

*R_NET C_3 2.433e-01
*DRIVER C_3
*CELL NULL
*C2_R1_C1 1.216e-01 1.881e-02 1.216e-01 
*LOADS
*RC I_35:A 4.575e-03
*END

*R_NET C_4 2.433e-01
*DRIVER C_4
*CELL NULL
*C2_R1_C1 1.216e-01 1.881e-02 1.216e-01 
*LOADS
*RC AND2_43:B 4.575e-03
*END

*R_NET C_5 2.433e-01
*DRIVER C_5
*CELL NULL
*C2_R1_C1 1.216e-01 1.881e-02 1.216e-01 
*LOADS
*RC AND2_42:B 4.575e-03
*END

*R_NET C_6 2.433e-01
*DRIVER C_6
*CELL NULL
*C2_R1_C1 1.216e-01 1.881e-02 1.216e-01 
*LOADS
*RC I_38:A 4.575e-03
*END

*R_NET C_7 2.433e-01
*DRIVER C_7
*CELL NULL
*C2_R1_C1 1.216e-01 1.881e-02 1.216e-01 
*LOADS
*RC I_39:A 4.575e-03
*END

*R_NET C_8 2.433e-01
*DRIVER C_8
*CELL NULL
*C2_R1_C1 1.216e-01 1.881e-02 1.216e-01 
*LOADS
*RC AND2_45:B 4.575e-03
*END

*R_NET C_9 2.433e-01
*DRIVER C_9
*CELL NULL
*C2_R1_C1 1.216e-01 1.881e-02 1.216e-01 
*LOADS
*RC AND2_44:B 4.575e-03
*END

*R_NET P_0 3.268e+00
*DRIVER P_0
*CELL NULL
*C2_R1_C1 1.634e+00 2.527e-01 1.634e+00 
*LOADS
*RC NAND2_24:B 8.257e-01
*RC NAND2_22:B 8.257e-01
*RC NAND2_20:B 8.257e-01
*RC NAND2_18:B 8.257e-01
*RC NAND2_3:B 8.257e-01
*RC AND2_41:A 8.257e-01
*RC AND2_23:B 8.257e-01
*RC AND2_5:A 8.257e-01
*RC I_29:A 8.257e-01
*END

*R_NET Z 2.433e-01
*DRIVER EXOR1:Z
*CELL GTECH_XOR2
*C2_R1_C1 1.216e-01 1.881e-02 1.216e-01 
*LOADS
*RC Z 4.575e-03
*END

*R_NET X_4 1.565e+00
*DRIVER DFF_0/Q_reg:Q
*CELL \*\*SEQGEN\*\*
*C2_R1_C1 7.824e-01 1.210e-01 7.824e-01 
*LOADS
*RC AND1:B 1.893e-01
*RC I_111:A 1.893e-01
*RC NAND2_1:B 1.893e-01
*RC OR3_0:B 1.893e-01
*RC I_5:A 1.893e-01
*END

*R_NET I12 2.433e-01
*DRIVER I_48:Z
*CELL GTECH_NOT
*C2_R1_C1 1.216e-01 1.881e-02 1.216e-01 
*LOADS
*RC DFF_0/Q_reg:next_state 4.575e-03
*END

*R_NET X_3 1.565e+00
*DRIVER DFF_1/Q_reg:Q
*CELL \*\*SEQGEN\*\*
*C2_R1_C1 7.824e-01 1.210e-01 7.824e-01 
*LOADS
*RC AND1:A 1.893e-01
*RC I_113:A 1.893e-01
*RC I_108:A 1.893e-01
*RC AND2_1:A 1.893e-01
*RC I_1:A 1.893e-01
*END

*R_NET I13 2.433e-01
*DRIVER OR2_0:Z
*CELL GTECH_OR2
*C2_R1_C1 1.216e-01 1.881e-02 1.216e-01 
*LOADS
*RC DFF_1/Q_reg:next_state 4.575e-03
*END

*R_NET X_2 1.203e+00
*DRIVER DFF_2/Q_reg:Q
*CELL \*\*SEQGEN\*\*
*C2_R1_C1 6.014e-01 9.300e-02 6.014e-01 
*LOADS
*RC I_112:A 1.119e-01
*RC NAND2_2:B 1.119e-01
*RC AND2_3:A 1.119e-01
*RC I_3:A 1.119e-01
*END

*R_NET I14 2.433e-01
*DRIVER NOR2_0:Z
*CELL GTECH_AND2
*C2_R1_C1 1.216e-01 1.881e-02 1.216e-01 
*LOADS
*RC DFF_2/Q_reg:next_state 4.575e-03
*END

*R_NET X_1 1.565e+00
*DRIVER DFF_3/Q_reg:Q
*CELL \*\*SEQGEN\*\*
*C2_R1_C1 7.824e-01 1.210e-01 7.824e-01 
*LOADS
*RC I_114:A 1.893e-01
*RC NAND2_3:A 1.893e-01
*RC NAND2_2:A 1.893e-01
*RC AND2_4:A 1.893e-01
*RC I_4:A 1.893e-01
*END

*R_NET I15 2.433e-01
*DRIVER OR2_1:Z
*CELL GTECH_OR2
*C2_R1_C1 1.216e-01 1.881e-02 1.216e-01 
*LOADS
*RC DFF_3/Q_reg:next_state 4.575e-03
*END

*R_NET X_8 1.203e+00
*DRIVER DFF_4/Q_reg:Q
*CELL \*\*SEQGEN\*\*
*C2_R1_C1 6.014e-01 9.300e-02 6.014e-01 
*LOADS
*RC I_124:A 1.119e-01
*RC NAND2_5:B 1.119e-01
*RC OR3_2:B 1.119e-01
*RC I_12:A 1.119e-01
*END

*R_NET I110 2.433e-01
*DRIVER I_52:Z
*CELL GTECH_NOT
*C2_R1_C1 1.216e-01 1.881e-02 1.216e-01 
*LOADS
*RC DFF_4/Q_reg:next_state 4.575e-03
*END

*R_NET X_7 1.203e+00
*DRIVER DFF_5/Q_reg:Q
*CELL \*\*SEQGEN\*\*
*C2_R1_C1 6.014e-01 9.300e-02 6.014e-01 
*LOADS
*RC I_126:A 1.119e-01
*RC I_121:A 1.119e-01
*RC AND2_7:A 1.119e-01
*RC I_7:A 1.119e-01
*END

*R_NET I111 2.433e-01
*DRIVER OR2_2:Z
*CELL GTECH_OR2
*C2_R1_C1 1.216e-01 1.881e-02 1.216e-01 
*LOADS
*RC DFF_5/Q_reg:next_state 4.575e-03
*END

*R_NET X_6 1.203e+00
*DRIVER DFF_6/Q_reg:Q
*CELL \*\*SEQGEN\*\*
*C2_R1_C1 6.014e-01 9.300e-02 6.014e-01 
*LOADS
*RC I_125:A 1.119e-01
*RC NAND2_6:B 1.119e-01
*RC AND2_9:A 1.119e-01
*RC I_9:A 1.119e-01
*END

*R_NET I112 2.433e-01
*DRIVER NOR2_2:Z
*CELL GTECH_AND2
*C2_R1_C1 1.216e-01 1.881e-02 1.216e-01 
*LOADS
*RC DFF_6/Q_reg:next_state 4.575e-03
*END

*R_NET X_5 1.565e+00
*DRIVER DFF_7/Q_reg:Q
*CELL \*\*SEQGEN\*\*
*C2_R1_C1 7.824e-01 1.210e-01 7.824e-01 
*LOADS
*RC I_127:A 1.893e-01
*RC NAND2_7:A 1.893e-01
*RC NAND2_6:A 1.893e-01
*RC AND2_10:A 1.893e-01
*RC I_10:A 1.893e-01
*END

*R_NET I113 2.433e-01
*DRIVER OR2_3:Z
*CELL GTECH_OR2
*C2_R1_C1 1.216e-01 1.881e-02 1.216e-01 
*LOADS
*RC DFF_7/Q_reg:next_state 4.575e-03
*END

*R_NET X_12 1.203e+00
*DRIVER DFF_8/Q_reg:Q
*CELL \*\*SEQGEN\*\*
*C2_R1_C1 6.014e-01 9.300e-02 6.014e-01 
*LOADS
*RC I_137:A 1.119e-01
*RC NAND2_9:B 1.119e-01
*RC OR3_4:B 1.119e-01
*RC I_19:A 1.119e-01
*END

*R_NET I208 2.433e-01
*DRIVER I_56:Z
*CELL GTECH_NOT
*C2_R1_C1 1.216e-01 1.881e-02 1.216e-01 
*LOADS
*RC DFF_8/Q_reg:next_state 4.575e-03
*END

*R_NET X_11 1.203e+00
*DRIVER DFF_9/Q_reg:Q
*CELL \*\*SEQGEN\*\*
*C2_R1_C1 6.014e-01 9.300e-02 6.014e-01 
*LOADS
*RC I_139:A 1.119e-01
*RC I_134:A 1.119e-01
*RC AND2_13:A 1.119e-01
*RC I_14:A 1.119e-01
*END

*R_NET I209 2.433e-01
*DRIVER OR2_4:Z
*CELL GTECH_OR2
*C2_R1_C1 1.216e-01 1.881e-02 1.216e-01 
*LOADS
*RC DFF_9/Q_reg:next_state 4.575e-03
*END

*R_NET X_10 1.203e+00
*DRIVER DFF_10/Q_reg:Q
*CELL \*\*SEQGEN\*\*
*C2_R1_C1 6.014e-01 9.300e-02 6.014e-01 
*LOADS
*RC I_138:A 1.119e-01
*RC NAND2_10:B 1.119e-01
*RC AND2_15:A 1.119e-01
*RC I_16:A 1.119e-01
*END

*R_NET I210 2.433e-01
*DRIVER NOR2_4:Z
*CELL GTECH_AND2
*C2_R1_C1 1.216e-01 1.881e-02 1.216e-01 
*LOADS
*RC DFF_10/Q_reg:next_state 4.575e-03
*END

*R_NET X_9 1.565e+00
*DRIVER DFF_11/Q_reg:Q
*CELL \*\*SEQGEN\*\*
*C2_R1_C1 7.824e-01 1.210e-01 7.824e-01 
*LOADS
*RC I_140:A 1.893e-01
*RC NAND2_11:A 1.893e-01
*RC NAND2_10:A 1.893e-01
*RC AND2_16:A 1.893e-01
*RC I_17:A 1.893e-01
*END

*R_NET I211 2.433e-01
*DRIVER OR2_5:Z
*CELL GTECH_OR2
*C2_R1_C1 1.216e-01 1.881e-02 1.216e-01 
*LOADS
*RC DFF_11/Q_reg:next_state 4.575e-03
*END

*R_NET X_16 8.629e-01
*DRIVER DFF_12/Q_reg:Q
*CELL \*\*SEQGEN\*\*
*C2_R1_C1 4.314e-01 6.672e-02 4.314e-01 
*LOADS
*RC NAND2_14:B 5.757e-02
*RC OR3_6:B 5.757e-02
*RC I_30:A 5.757e-02
*END

*R_NET I306 2.433e-01
*DRIVER I_60:Z
*CELL GTECH_NOT
*C2_R1_C1 1.216e-01 1.881e-02 1.216e-01 
*LOADS
*RC DFF_12/Q_reg:next_state 4.575e-03
*END

*R_NET X_15 8.629e-01
*DRIVER DFF_13/Q_reg:Q
*CELL \*\*SEQGEN\*\*
*C2_R1_C1 4.314e-01 6.672e-02 4.314e-01 
*LOADS
*RC I_147:A 5.757e-02
*RC OR2_6:B 5.757e-02
*RC I_24:A 5.757e-02
*END

*R_NET I307 2.433e-01
*DRIVER I_61:Z
*CELL GTECH_NOT
*C2_R1_C1 1.216e-01 1.881e-02 1.216e-01 
*LOADS
*RC DFF_13/Q_reg:next_state 4.575e-03
*END

*R_NET X_14 1.203e+00
*DRIVER DFF_14/Q_reg:Q
*CELL \*\*SEQGEN\*\*
*C2_R1_C1 6.014e-01 9.300e-02 6.014e-01 
*LOADS
*RC NAND2_16:B 1.119e-01
*RC AND2_22:B 1.119e-01
*RC AND2_19:A 1.119e-01
*RC I_21:A 1.119e-01
*END

*R_NET I308 2.433e-01
*DRIVER NOR2_6:Z
*CELL GTECH_AND2
*C2_R1_C1 1.216e-01 1.881e-02 1.216e-01 
*LOADS
*RC DFF_14/Q_reg:next_state 4.575e-03
*END

*R_NET X_13 8.629e-01
*DRIVER DFF_15/Q_reg:Q
*CELL \*\*SEQGEN\*\*
*C2_R1_C1 4.314e-01 6.672e-02 4.314e-01 
*LOADS
*RC NAND2_15:A 5.757e-02
*RC AND2_20:A 5.757e-02
*RC I_22:A 5.757e-02
*END

*R_NET I309 2.433e-01
*DRIVER OR2_7:Z
*CELL GTECH_OR2
*C2_R1_C1 1.216e-01 1.881e-02 1.216e-01 
*LOADS
*RC DFF_15/Q_reg:next_state 4.575e-03
*END

*R_NET I69 5.436e-01
*DRIVER NOR2_1:Z
*CELL GTECH_AND2
*C2_R1_C1 2.718e-01 4.203e-02 2.718e-01 
*LOADS
*RC AND2_0:A 2.285e-02
*RC I_0:A 2.285e-02
*END

*R_NET I73_1 5.436e-01
*DRIVER I_0:Z
*CELL GTECH_NOT
*C2_R1_C1 2.718e-01 4.203e-02 2.718e-01 
*LOADS
*RC OR3_0:A 2.285e-02
*RC AND2_1:B 2.285e-02
*END

*R_NET I73_2 1.565e+00
*DRIVER I_1:Z
*CELL GTECH_NOT
*C2_R1_C1 7.824e-01 1.210e-01 7.824e-01 
*LOADS
*RC I_106:A 1.893e-01
*RC I_81:A 1.893e-01
*RC OR3_1:B 1.893e-01
*RC OR3_0:C 1.893e-01
*RC AND2_0:B 1.893e-01
*END

*R_NET I66 5.436e-01
*DRIVER I_51:Z
*CELL GTECH_NOT
*C2_R1_C1 2.718e-01 4.203e-02 2.718e-01 
*LOADS
*RC AND2_2:A 2.285e-02
*RC I_2:A 2.285e-02
*END

*R_NET I7_1 2.433e-01
*DRIVER I_2:Z
*CELL GTECH_NOT
*C2_R1_C1 1.216e-01 1.881e-02 1.216e-01 
*LOADS
*RC AND2_3:B 4.575e-03
*END

*R_NET I7_2 8.629e-01
*DRIVER I_3:Z
*CELL GTECH_NOT
*C2_R1_C1 4.314e-01 6.672e-02 4.314e-01 
*LOADS
*RC I_104:A 5.757e-02
*RC NAND2_17:B 5.757e-02
*RC AND2_2:B 5.757e-02
*END

*R_NET I88_1 8.629e-01
*DRIVER I_4:Z
*CELL GTECH_NOT
*C2_R1_C1 4.314e-01 6.672e-02 4.314e-01 
*LOADS
*RC I_103:A 5.757e-02
*RC NAND2_18:A 5.757e-02
*RC AND2_5:B 5.757e-02
*END

*R_NET I49 5.436e-01
*DRIVER I_5:Z
*CELL GTECH_NOT
*C2_R1_C1 2.718e-01 4.203e-02 2.718e-01 
*LOADS
*RC I_110:A 2.285e-02
*RC I_80:A 2.285e-02
*END

*R_NET I167 5.436e-01
*DRIVER NOR2_3:Z
*CELL GTECH_AND2
*C2_R1_C1 2.718e-01 4.203e-02 2.718e-01 
*LOADS
*RC AND2_6:A 2.285e-02
*RC I_6:A 2.285e-02
*END

*R_NET I171_1 5.436e-01
*DRIVER I_6:Z
*CELL GTECH_NOT
*C2_R1_C1 2.718e-01 4.203e-02 2.718e-01 
*LOADS
*RC OR3_2:A 2.285e-02
*RC AND2_7:B 2.285e-02
*END

*R_NET I171_2 1.565e+00
*DRIVER I_7:Z
*CELL GTECH_NOT
*C2_R1_C1 7.824e-01 1.210e-01 7.824e-01 
*LOADS
*RC I_119:A 1.893e-01
*RC I_88:A 1.893e-01
*RC OR3_3:B 1.893e-01
*RC OR3_2:C 1.893e-01
*RC AND2_6:B 1.893e-01
*END

*R_NET I164 5.436e-01
*DRIVER I_55:Z
*CELL GTECH_NOT
*C2_R1_C1 2.718e-01 4.203e-02 2.718e-01 
*LOADS
*RC AND2_8:A 2.285e-02
*RC I_8:A 2.285e-02
*END

*R_NET I105_1 2.433e-01
*DRIVER I_8:Z
*CELL GTECH_NOT
*C2_R1_C1 1.216e-01 1.881e-02 1.216e-01 
*LOADS
*RC AND2_9:B 4.575e-03
*END

*R_NET I105_2 8.629e-01
*DRIVER I_9:Z
*CELL GTECH_NOT
*C2_R1_C1 4.314e-01 6.672e-02 4.314e-01 
*LOADS
*RC I_117:A 5.757e-02
*RC NAND2_19:B 5.757e-02
*RC AND2_8:B 5.757e-02
*END

*R_NET I186_1 8.629e-01
*DRIVER I_10:Z
*CELL GTECH_NOT
*C2_R1_C1 4.314e-01 6.672e-02 4.314e-01 
*LOADS
*RC I_116:A 5.757e-02
*RC NAND2_20:A 5.757e-02
*RC AND2_11:B 5.757e-02
*END

*R_NET I1_2 1.203e+00
*DRIVER AND2_23:Z
*CELL GTECH_AND2
*C2_R1_C1 6.014e-01 9.300e-02 6.014e-01 
*LOADS
*RC NAND2_7:B 1.119e-01
*RC AND2_24:B 1.119e-01
*RC AND2_11:A 1.119e-01
*RC I_11:A 1.119e-01
*END

*R_NET I186_2 8.629e-01
*DRIVER I_11:Z
*CELL GTECH_NOT
*C2_R1_C1 4.314e-01 6.672e-02 4.314e-01 
*LOADS
*RC I_90:A 5.757e-02
*RC OR3_3:C 5.757e-02
*RC AND2_10:B 5.757e-02
*END

*R_NET I147 5.436e-01
*DRIVER I_12:Z
*CELL GTECH_NOT
*C2_R1_C1 2.718e-01 4.203e-02 2.718e-01 
*LOADS
*RC I_123:A 2.285e-02
*RC I_87:A 2.285e-02
*END

*R_NET I265 5.436e-01
*DRIVER NOR2_5:Z
*CELL GTECH_AND2
*C2_R1_C1 2.718e-01 4.203e-02 2.718e-01 
*LOADS
*RC AND2_12:A 2.285e-02
*RC I_13:A 2.285e-02
*END

*R_NET I269_1 5.436e-01
*DRIVER I_13:Z
*CELL GTECH_NOT
*C2_R1_C1 2.718e-01 4.203e-02 2.718e-01 
*LOADS
*RC OR3_4:A 2.285e-02
*RC AND2_13:B 2.285e-02
*END

*R_NET I269_2 1.565e+00
*DRIVER I_14:Z
*CELL GTECH_NOT
*C2_R1_C1 7.824e-01 1.210e-01 7.824e-01 
*LOADS
*RC I_132:A 1.893e-01
*RC I_95:A 1.893e-01
*RC OR3_5:B 1.893e-01
*RC OR3_4:C 1.893e-01
*RC AND2_12:B 1.893e-01
*END

*R_NET I262 5.436e-01
*DRIVER I_59:Z
*CELL GTECH_NOT
*C2_R1_C1 2.718e-01 4.203e-02 2.718e-01 
*LOADS
*RC AND2_14:A 2.285e-02
*RC I_15:A 2.285e-02
*END

*R_NET I203_1 2.433e-01
*DRIVER I_15:Z
*CELL GTECH_NOT
*C2_R1_C1 1.216e-01 1.881e-02 1.216e-01 
*LOADS
*RC AND2_15:B 4.575e-03
*END

*R_NET I203_2 8.629e-01
*DRIVER I_16:Z
*CELL GTECH_NOT
*C2_R1_C1 4.314e-01 6.672e-02 4.314e-01 
*LOADS
*RC I_130:A 5.757e-02
*RC NAND2_21:B 5.757e-02
*RC AND2_14:B 5.757e-02
*END

*R_NET I284_1 8.629e-01
*DRIVER I_17:Z
*CELL GTECH_NOT
*C2_R1_C1 4.314e-01 6.672e-02 4.314e-01 
*LOADS
*RC I_129:A 5.757e-02
*RC NAND2_22:A 5.757e-02
*RC AND2_17:B 5.757e-02
*END

*R_NET I1_3 1.203e+00
*DRIVER AND2_24:Z
*CELL GTECH_AND2
*C2_R1_C1 6.014e-01 9.300e-02 6.014e-01 
*LOADS
*RC NAND2_11:B 1.119e-01
*RC AND2_25:B 1.119e-01
*RC AND2_17:A 1.119e-01
*RC I_18:A 1.119e-01
*END

*R_NET I284_2 8.629e-01
*DRIVER I_18:Z
*CELL GTECH_NOT
*C2_R1_C1 4.314e-01 6.672e-02 4.314e-01 
*LOADS
*RC I_97:A 5.757e-02
*RC OR3_5:C 5.757e-02
*RC AND2_16:B 5.757e-02
*END

*R_NET I245 5.436e-01
*DRIVER I_19:Z
*CELL GTECH_NOT
*C2_R1_C1 2.718e-01 4.203e-02 2.718e-01 
*LOADS
*RC I_136:A 2.285e-02
*RC I_94:A 2.285e-02
*END

*R_NET I359 8.629e-01
*DRIVER I_63:Z
*CELL GTECH_NOT
*C2_R1_C1 4.314e-01 6.672e-02 4.314e-01 
*LOADS
*RC OR3_7:A 5.757e-02
*RC AND2_18:A 5.757e-02
*RC I_20:A 5.757e-02
*END

*R_NET I301_1 8.629e-01
*DRIVER I_20:Z
*CELL GTECH_NOT
*C2_R1_C1 4.314e-01 6.672e-02 4.314e-01 
*LOADS
*RC NAND2_16:A 5.757e-02
*RC AND2_22:A 5.757e-02
*RC AND2_19:B 5.757e-02
*END

*R_NET I301_2 1.203e+00
*DRIVER I_21:Z
*CELL GTECH_NOT
*C2_R1_C1 6.014e-01 9.300e-02 6.014e-01 
*LOADS
*RC I_143:A 1.119e-01
*RC NAND2_23:B 1.119e-01
*RC OR3_7:B 1.119e-01
*RC AND2_18:B 1.119e-01
*END

*R_NET I378_1 8.629e-01
*DRIVER I_22:Z
*CELL GTECH_NOT
*C2_R1_C1 4.314e-01 6.672e-02 4.314e-01 
*LOADS
*RC I_142:A 5.757e-02
*RC NAND2_24:A 5.757e-02
*RC AND2_21:B 5.757e-02
*END

*R_NET I1_4 8.629e-01
*DRIVER AND2_25:Z
*CELL GTECH_AND2
*C2_R1_C1 4.314e-01 6.672e-02 4.314e-01 
*LOADS
*RC NAND2_15:B 5.757e-02