*SPEF "IEEE 1481-1999"
*DESIGN "c1355"
*DATE "Sun Oct 16 23:46:42 2022"
*VENDOR "SYNOPSYS INC"
*PROGRAM "Synopsys Design Compiler"
*VERSION "S-2021.06-SP5-3"
*DESIGN_FLOW "SYNTHESIS"
*DIVIDER /
*DELIMITER :
*BUS_DELIMITER []
*T_UNIT 1.0 NS
*C_UNIT 0.0010 PF
*R_UNIT 1000.0 KOHM
*L_UNIT 1.0 HENRY

*PORTS

G1 I *L 0.000e+00 *S 0.000e+00 0.000e+00 
G10 I *L 0.000e+00 *S 0.000e+00 0.000e+00 
G11 I *L 0.000e+00 *S 0.000e+00 0.000e+00 
G12 I *L 0.000e+00 *S 0.000e+00 0.000e+00 
G13 I *L 0.000e+00 *S 0.000e+00 0.000e+00 
G1324 O *L 0.000e+00 *S 0.000e+00 0.000e+00 
G1325 O *L 0.000e+00 *S 0.000e+00 0.000e+00 
G1326 O *L 0.000e+00 *S 0.000e+00 0.000e+00 
G1327 O *L 0.000e+00 *S 0.000e+00 0.000e+00 
G1328 O *L 0.000e+00 *S 0.000e+00 0.000e+00 
G1329 O *L 0.000e+00 *S 0.000e+00 0.000e+00 
G1330 O *L 0.000e+00 *S 0.000e+00 0.000e+00 
G1331 O *L 0.000e+00 *S 0.000e+00 0.000e+00 
G1332 O *L 0.000e+00 *S 0.000e+00 0.000e+00 
G1333 O *L 0.000e+00 *S 0.000e+00 0.000e+00 
G1334 O *L 0.000e+00 *S 0.000e+00 0.000e+00 
G1335 O *L 0.000e+00 *S 0.000e+00 0.000e+00 
G1336 O *L 0.000e+00 *S 0.000e+00 0.000e+00 
G1337 O *L 0.000e+00 *S 0.000e+00 0.000e+00 
G1338 O *L 0.000e+00 *S 0.000e+00 0.000e+00 
G1339 O *L 0.000e+00 *S 0.000e+00 0.000e+00 
G1340 O *L 0.000e+00 *S 0.000e+00 0.000e+00 
G1341 O *L 0.000e+00 *S 0.000e+00 0.000e+00 
G1342 O *L 0.000e+00 *S 0.000e+00 0.000e+00 
G1343 O *L 0.000e+00 *S 0.000e+00 0.000e+00 
G1344 O *L 0.000e+00 *S 0.000e+00 0.000e+00 
G1345 O *L 0.000e+00 *S 0.000e+00 0.000e+00 
G1346 O *L 0.000e+00 *S 0.000e+00 0.000e+00 
G1347 O *L 0.000e+00 *S 0.000e+00 0.000e+00 
G1348 O *L 0.000e+00 *S 0.000e+00 0.000e+00 
G1349 O *L 0.000e+00 *S 0.000e+00 0.000e+00 
G1350 O *L 0.000e+00 *S 0.000e+00 0.000e+00 
G1351 O *L 0.000e+00 *S 0.000e+00 0.000e+00 
G1352 O *L 0.000e+00 *S 0.000e+00 0.000e+00 
G1353 O *L 0.000e+00 *S 0.000e+00 0.000e+00 
G1354 O *L 0.000e+00 *S 0.000e+00 0.000e+00 
G1355 O *L 0.000e+00 *S 0.000e+00 0.000e+00 
G14 I *L 0.000e+00 *S 0.000e+00 0.000e+00 
G15 I *L 0.000e+00 *S 0.000e+00 0.000e+00 
G16 I *L 0.000e+00 *S 0.000e+00 0.000e+00 
G17 I *L 0.000e+00 *S 0.000e+00 0.000e+00 
G18 I *L 0.000e+00 *S 0.000e+00 0.000e+00 
G19 I *L 0.000e+00 *S 0.000e+00 0.000e+00 
G2 I *L 0.000e+00 *S 0.000e+00 0.000e+00 
G20 I *L 0.000e+00 *S 0.000e+00 0.000e+00 
G21 I *L 0.000e+00 *S 0.000e+00 0.000e+00 
G22 I *L 0.000e+00 *S 0.000e+00 0.000e+00 
G23 I *L 0.000e+00 *S 0.000e+00 0.000e+00 
G24 I *L 0.000e+00 *S 0.000e+00 0.000e+00 
G25 I *L 0.000e+00 *S 0.000e+00 0.000e+00 
G26 I *L 0.000e+00 *S 0.000e+00 0.000e+00 
G27 I *L 0.000e+00 *S 0.000e+00 0.000e+00 
G28 I *L 0.000e+00 *S 0.000e+00 0.000e+00 
G29 I *L 0.000e+00 *S 0.000e+00 0.000e+00 
G3 I *L 0.000e+00 *S 0.000e+00 0.000e+00 
G30 I *L 0.000e+00 *S 0.000e+00 0.000e+00 
G31 I *L 0.000e+00 *S 0.000e+00 0.000e+00 
G32 I *L 0.000e+00 *S 0.000e+00 0.000e+00 
G33 I *L 0.000e+00 *S 0.000e+00 0.000e+00 
G34 I *L 0.000e+00 *S 0.000e+00 0.000e+00 
G35 I *L 0.000e+00 *S 0.000e+00 0.000e+00 
G36 I *L 0.000e+00 *S 0.000e+00 0.000e+00 
G37 I *L 0.000e+00 *S 0.000e+00 0.000e+00 
G38 I *L 0.000e+00 *S 0.000e+00 0.000e+00 
G39 I *L 0.000e+00 *S 0.000e+00 0.000e+00 
G4 I *L 0.000e+00 *S 0.000e+00 0.000e+00 
G40 I *L 0.000e+00 *S 0.000e+00 0.000e+00 
G41 I *L 0.000e+00 *S 0.000e+00 0.000e+00 
G5 I *L 0.000e+00 *S 0.000e+00 0.000e+00 
G6 I *L 0.000e+00 *S 0.000e+00 0.000e+00 
G7 I *L 0.000e+00 *S 0.000e+00 0.000e+00 
G8 I *L 0.000e+00 *S 0.000e+00 0.000e+00 
G9 I *L 0.000e+00 *S 0.000e+00 0.000e+00 

*R_NET N0 2.433e-01
*DRIVER NAND2_0:Z
*CELL GTECH_AND2
*C2_R1_C1 1.216e-01 1.881e-02 1.216e-01 
*LOADS
*RC I_0:A 4.575e-03
*END

*R_NET N1 2.433e-01
*DRIVER NAND2_1:Z
*CELL GTECH_AND2
*C2_R1_C1 1.216e-01 1.881e-02 1.216e-01 
*LOADS
*RC I_1:A 4.575e-03
*END

*R_NET N2 2.433e-01
*DRIVER NAND2_2:Z
*CELL GTECH_AND2
*C2_R1_C1 1.216e-01 1.881e-02 1.216e-01 
*LOADS
*RC I_2:A 4.575e-03
*END

*R_NET N3 2.433e-01
*DRIVER NAND2_3:Z
*CELL GTECH_AND2
*C2_R1_C1 1.216e-01 1.881e-02 1.216e-01 
*LOADS
*RC I_3:A 4.575e-03
*END

*R_NET N4 2.433e-01
*DRIVER NAND2_4:Z
*CELL GTECH_AND2
*C2_R1_C1 1.216e-01 1.881e-02 1.216e-01 
*LOADS
*RC I_4:A 4.575e-03
*END

*R_NET N5 2.433e-01
*DRIVER NAND2_5:Z
*CELL GTECH_AND2
*C2_R1_C1 1.216e-01 1.881e-02 1.216e-01 
*LOADS
*RC I_5:A 4.575e-03
*END

*R_NET N6 2.433e-01
*DRIVER NAND2_6:Z
*CELL GTECH_AND2
*C2_R1_C1 1.216e-01 1.881e-02 1.216e-01 
*LOADS
*RC I_6:A 4.575e-03
*END

*R_NET N7 2.433e-01
*DRIVER NAND2_7:Z
*CELL GTECH_AND2
*C2_R1_C1 1.216e-01 1.881e-02 1.216e-01 
*LOADS
*RC I_7:A 4.575e-03
*END

*R_NET N8 2.433e-01
*DRIVER NAND2_8:Z
*CELL GTECH_AND2
*C2_R1_C1 1.216e-01 1.881e-02 1.216e-01 
*LOADS
*RC I_8:A 4.575e-03
*END

*R_NET N9 2.433e-01
*DRIVER NAND2_9:Z
*CELL GTECH_AND2
*C2_R1_C1 1.216e-01 1.881e-02 1.216e-01 
*LOADS
*RC I_9:A 4.575e-03
*END

*R_NET N10 2.433e-01
*DRIVER NAND2_10:Z
*CELL GTECH_AND2
*C2_R1_C1 1.216e-01 1.881e-02 1.216e-01 
*LOADS
*RC I_10:A 4.575e-03
*END

*R_NET N11 2.433e-01
*DRIVER NAND2_11:Z
*CELL GTECH_AND2
*C2_R1_C1 1.216e-01 1.881e-02 1.216e-01 
*LOADS
*RC I_11:A 4.575e-03
*END

*R_NET N12 2.433e-01
*DRIVER NAND2_12:Z
*CELL GTECH_AND2
*C2_R1_C1 1.216e-01 1.881e-02 1.216e-01 
*LOADS
*RC I_12:A 4.575e-03
*END

*R_NET N13 2.433e-01
*DRIVER NAND2_13:Z
*CELL GTECH_AND2
*C2_R1_C1 1.216e-01 1.881e-02 1.216e-01 
*LOADS
*RC I_13:A 4.575e-03
*END

*R_NET N14 2.433e-01
*DRIVER NAND2_14:Z
*CELL GTECH_AND2
*C2_R1_C1 1.216e-01 1.881e-02 1.216e-01 
*LOADS
*RC I_14:A 4.575e-03
*END

*R_NET N15 2.433e-01
*DRIVER NAND2_15:Z
*CELL GTECH_AND2
*C2_R1_C1 1.216e-01 1.881e-02 1.216e-01 
*LOADS
*RC I_15:A 4.575e-03
*END

*R_NET N16 2.433e-01
*DRIVER NAND2_16:Z
*CELL GTECH_AND2
*C2_R1_C1 1.216e-01 1.881e-02 1.216e-01 
*LOADS
*RC I_16:A 4.575e-03
*END

*R_NET N17 2.433e-01
*DRIVER NAND2_17:Z
*CELL GTECH_AND2
*C2_R1_C1 1.216e-01 1.881e-02 1.216e-01 
*LOADS
*RC I_17:A 4.575e-03
*END

*R_NET N18 2.433e-01
*DRIVER NAND2_18:Z
*CELL GTECH_AND2
*C2_R1_C1 1.216e-01 1.881e-02 1.216e-01 
*LOADS
*RC I_18:A 4.575e-03
*END

*R_NET N19 2.433e-01
*DRIVER NAND2_19:Z
*CELL GTECH_AND2
*C2_R1_C1 1.216e-01 1.881e-02 1.216e-01 
*LOADS
*RC I_19:A 4.575e-03
*END

*R_NET N20 2.433e-01
*DRIVER NAND2_20:Z
*CELL GTECH_AND2
*C2_R1_C1 1.216e-01 1.881e-02 1.216e-01 
*LOADS
*RC I_20:A 4.575e-03
*END

*R_NET N21 2.433e-01
*DRIVER NAND2_21:Z
*CELL GTECH_AND2
*C2_R1_C1 1.216e-01 1.881e-02 1.216e-01 
*LOADS
*RC I_21:A 4.575e-03
*END

*R_NET N22 2.433e-01
*DRIVER NAND2_22:Z
*CELL GTECH_AND2
*C2_R1_C1 1.216e-01 1.881e-02 1.216e-01 
*LOADS
*RC I_22:A 4.575e-03
*END

*R_NET N23 2.433e-01
*DRIVER NAND2_23:Z
*CELL GTECH_AND2
*C2_R1_C1 1.216e-01 1.881e-02 1.216e-01 
*LOADS
*RC I_23:A 4.575e-03
*END

*R_NET N24 2.433e-01
*DRIVER NAND2_24:Z
*CELL GTECH_AND2
*C2_R1_C1 1.216e-01 1.881e-02 1.216e-01 
*LOADS
*RC I_24:A 4.575e-03
*END

*R_NET N25 2.433e-01
*DRIVER NAND2_25:Z
*CELL GTECH_AND2
*C2_R1_C1 1.216e-01 1.881e-02 1.216e-01 
*LOADS
*RC I_25:A 4.575e-03
*END

*R_NET N26 2.433e-01
*DRIVER NAND2_26:Z
*CELL GTECH_AND2
*C2_R1_C1 1.216e-01 1.881e-02 1.216e-01 
*LOADS
*RC I_26:A 4.575e-03
*END

*R_NET N27 2.433e-01
*DRIVER NAND2_27:Z
*CELL GTECH_AND2
*C2_R1_C1 1.216e-01 1.881e-02 1.216e-01 
*LOADS
*RC I_27:A 4.575e-03
*END

*R_NET N28 2.433e-01
*DRIVER NAND2_28:Z
*CELL GTECH_AND2
*C2_R1_C1 1.216e-01 1.881e-02 1.216e-01 
*LOADS
*RC I_28:A 4.575e-03
*END

*R_NET N29 2.433e-01
*DRIVER NAND2_29:Z
*CELL GTECH_AND2
*C2_R1_C1 1.216e-01 1.881e-02 1.216e-01 
*LOADS
*RC I_29:A 4.575e-03
*END

*R_NET N30 2.433e-01
*DRIVER NAND2_30:Z
*CELL GTECH_AND2
*C2_R1_C1 1.216e-01 1.881e-02 1.216e-01 
*LOADS
*RC I_30:A 4.575e-03
*END

*R_NET N31 2.433e-01
*DRIVER NAND2_31:Z
*CELL GTECH_AND2
*C2_R1_C1 1.216e-01 1.881e-02 1.216e-01 
*LOADS
*RC I_31:A 4.575e-03
*END

*R_NET N32 2.433e-01
*DRIVER NAND2_32:Z
*CELL GTECH_AND2
*C2_R1_C1 1.216e-01 1.881e-02 1.216e-01 
*LOADS
*RC I_32:A 4.575e-03
*END

*R_NET N33 2.433e-01
*DRIVER NAND2_33:Z
*CELL GTECH_AND2
*C2_R1_C1 1.216e-01 1.881e-02 1.216e-01 
*LOADS
*RC I_33:A 4.575e-03
*END

*R_NET N34 2.433e-01
*DRIVER NAND2_34:Z
*CELL GTECH_AND2
*C2_R1_C1 1.216e-01 1.881e-02 1.216e-01 
*LOADS
*RC I_34:A 4.575e-03
*END

*R_NET N35 2.433e-01
*DRIVER NAND2_35:Z
*CELL GTECH_AND2
*C2_R1_C1 1.216e-01 1.881e-02 1.216e-01 
*LOADS
*RC I_35:A 4.575e-03
*END

*R_NET N36 2.433e-01
*DRIVER NAND2_36:Z
*CELL GTECH_AND2
*C2_R1_C1 1.216e-01 1.881e-02 1.216e-01 
*LOADS
*RC I_36:A 4.575e-03
*END

*R_NET N37 2.433e-01
*DRIVER NAND2_37:Z
*CELL GTECH_AND2
*C2_R1_C1 1.216e-01 1.881e-02 1.216e-01 
*LOADS
*RC I_37:A 4.575e-03
*END

*R_NET N38 2.433e-01
*DRIVER NAND2_38:Z
*CELL GTECH_AND2
*C2_R1_C1 1.216e-01 1.881e-02 1.216e-01 
*LOADS
*RC I_38:A 4.575e-03
*END

*R_NET N39 2.433e-01
*DRIVER NAND2_39:Z
*CELL GTECH_AND2
*C2_R1_C1 1.216e-01 1.881e-02 1.216e-01 
*LOADS
*RC I_39:A 4.575e-03
*END

*R_NET N40 2.433e-01
*DRIVER NAND2_40:Z
*CELL GTECH_AND2
*C2_R1_C1 1.216e-01 1.881e-02 1.216e-01 
*LOADS
*RC I_40:A 4.575e-03
*END

*R_NET N41 2.433e-01
*DRIVER NAND2_41:Z
*CELL GTECH_AND2
*C2_R1_C1 1.216e-01 1.881e-02 1.216e-01 
*LOADS
*RC I_41:A 4.575e-03
*END

*R_NET N42 2.433e-01
*DRIVER NAND2_42:Z
*CELL GTECH_AND2
*C2_R1_C1 1.216e-01 1.881e-02 1.216e-01 
*LOADS
*RC I_42:A 4.575e-03
*END

*R_NET N43 2.433e-01
*DRIVER NAND2_43:Z
*CELL GTECH_AND2
*C2_R1_C1 1.216e-01 1.881e-02 1.216e-01 
*LOADS
*RC I_43:A 4.575e-03
*END

*R_NET N44 2.433e-01
*DRIVER NAND2_44:Z
*CELL GTECH_AND2
*C2_R1_C1 1.216e-01 1.881e-02 1.216e-01 
*LOADS
*RC I_44:A 4.575e-03
*END

*R_NET N45 2.433e-01
*DRIVER NAND2_45:Z
*CELL GTECH_AND2
*C2_R1_C1 1.216e-01 1.881e-02 1.216e-01 
*LOADS
*RC I_45:A 4.575e-03
*END

*R_NET N46 2.433e-01
*DRIVER NAND2_46:Z
*CELL GTECH_AND2
*C2_R1_C1 1.216e-01 1.881e-02 1.216e-01 
*LOADS
*RC I_46:A 4.575e-03
*END

*R_NET N47 2.433e-01
*DRIVER NAND2_47:Z
*CELL GTECH_AND2
*C2_R1_C1 1.216e-01 1.881e-02 1.216e-01 
*LOADS
*RC I_47:A 4.575e-03
*END

*R_NET N48 2.433e-01
*DRIVER NAND2_48:Z
*CELL GTECH_AND2
*C2_R1_C1 1.216e-01 1.881e-02 1.216e-01 
*LOADS
*RC I_48:A 4.575e-03
*END

*R_NET N49 2.433e-01
*DRIVER NAND2_49:Z
*CELL GTECH_AND2
*C2_R1_C1 1.216e-01 1.881e-02 1.216e-01 
*LOADS
*RC I_49:A 4.575e-03
*END

*R_NET N50 2.433e-01
*DRIVER NAND2_50:Z
*CELL GTECH_AND2
*C2_R1_C1 1.216e-01 1.881e-02 1.216e-01 
*LOADS
*RC I_50:A 4.575e-03
*END

*R_NET N51 2.433e-01
*DRIVER NAND2_51:Z
*CELL GTECH_AND2
*C2_R1_C1 1.216e-01 1.881e-02 1.216e-01 
*LOADS
*RC I_51:A 4.575e-03
*END

*R_NET N52 2.433e-01
*DRIVER NAND2_52:Z
*CELL GTECH_AND2
*C2_R1_C1 1.216e-01 1.881e-02 1.216e-01 
*LOADS
*RC I_52:A 4.575e-03
*END

*R_NET N53 2.433e-01
*DRIVER NAND2_53:Z
*CELL GTECH_AND2
*C2_R1_C1 1.216e-01 1.881e-02 1.216e-01 
*LOADS
*RC I_53:A 4.575e-03
*END

*R_NET N54 2.433e-01
*DRIVER NAND2_54:Z
*CELL GTECH_AND2
*C2_R1_C1 1.216e-01 1.881e-02 1.216e-01 
*LOADS
*RC I_54:A 4.575e-03
*END

*R_NET N55 2.433e-01
*DRIVER NAND2_55:Z
*CELL GTECH_AND2
*C2_R1_C1 1.216e-01 1.881e-02 1.216e-01 
*LOADS
*RC I_55:A 4.575e-03
*END

*R_NET N56 2.433e-01
*DRIVER NAND2_56:Z
*CELL GTECH_AND2
*C2_R1_C1 1.216e-01 1.881e-02 1.216e-01 
*LOADS
*RC I_56:A 4.575e-03
*END

*R_NET N57 2.433e-01
*DRIVER NAND2_57:Z
*CELL GTECH_AND2
*C2_R1_C1 1.216e-01 1.881e-02 1.216e-01 
*LOADS
*RC I_57:A 4.575e-03
*END

*R_NET N58 2.433e-01
*DRIVER NAND2_58:Z
*CELL GTECH_AND2
*C2_R1_C1 1.216e-01 1.881e-02 1.216e-01 
*LOADS
*RC I_58:A 4.575e-03
*END

*R_NET N59 2.433e-01
*DRIVER NAND2_59:Z
*CELL GTECH_AND2
*C2_R1_C1 1.216e-01 1.881e-02 1.216e-01 
*LOADS
*RC I_59:A 4.575e-03
*END

*R_NET N60 2.433e-01
*DRIVER NAND2_60:Z
*CELL GTECH_AND2
*C2_R1_C1 1.216e-01 1.881e-02 1.216e-01 
*LOADS
*RC I_60:A 4.575e-03
*END

*R_NET N61 2.433e-01
*DRIVER NAND2_61:Z
*CELL GTECH_AND2
*C2_R1_C1 1.216e-01 1.881e-02 1.216e-01 
*LOADS
*RC I_61:A 4.575e-03
*END

*R_NET N62 2.433e-01
*DRIVER NAND2_62:Z
*CELL GTECH_AND2
*C2_R1_C1 1.216e-01 1.881e-02 1.216e-01 
*LOADS
*RC I_62:A 4.575e-03
*END

*R_NET N63 2.433e-01
*DRIVER NAND2_63:Z
*CELL GTECH_AND2
*C2_R1_C1 1.216e-01 1.881e-02 1.216e-01 
*LOADS
*RC I_63:A 4.575e-03
*END

*R_NET N64 2.433e-01
*DRIVER NAND2_64:Z
*CELL GTECH_AND2
*C2_R1_C1 1.216e-01 1.881e-02 1.216e-01 
*LOADS
*RC I_64:A 4.575e-03
*END

*R_NET N65 2.433e-01
*DRIVER NAND2_65:Z
*CELL GTECH_AND2
*C2_R1_C1 1.216e-01 1.881e-02 1.216e-01 
*LOADS
*RC I_65:A 4.575e-03
*END

*R_NET N66 2.433e-01
*DRIVER NAND2_66:Z
*CELL GTECH_AND2
*C2_R1_C1 1.216e-01 1.881e-02 1.216e-01 
*LOADS
*RC I_66:A 4.575e-03
*END

*R_NET N67 2.433e-01
*DRIVER NAND2_67:Z
*CELL GTECH_AND2
*C2_R1_C1 1.216e-01 1.881e-02 1.216e-01 
*LOADS
*RC I_67:A 4.575e-03
*END

*R_NET N68 2.433e-01
*DRIVER NAND2_68:Z
*CELL GTECH_AND2
*C2_R1_C1 1.216e-01 1.881e-02 1.216e-01 
*LOADS
*RC I_68:A 4.575e-03
*END

*R_NET N69 2.433e-01
*DRIVER NAND2_69:Z
*CELL GTECH_AND2
*C2_R1_C1 1.216e-01 1.881e-02 1.216e-01 
*LOADS
*RC I_69:A 4.575e-03
*END

*R_NET N70 2.433e-01
*DRIVER NAND2_70:Z
*CELL GTECH_AND2
*C2_R1_C1 1.216e-01 1.881e-02 1.216e-01 
*LOADS
*RC I_70:A 4.575e-03
*END

*R_NET N71 2.433e-01
*DRIVER NAND2_71:Z
*CELL GTECH_AND2
*C2_R1_C1 1.216e-01 1.881e-02 1.216e-01 
*LOADS
*RC I_71:A 4.575e-03
*END

*R_NET N72 2.433e-01
*DRIVER NAND2_72:Z
*CELL GTECH_AND2
*C2_R1_C1 1.216e-01 1.881e-02 1.216e-01 
*LOADS
*RC I_72:A 4.575e-03
*END

*R_NET N73 2.433e-01
*DRIVER NAND2_73:Z
*CELL GTECH_AND2
*C2_R1_C1 1.216e-01 1.881e-02 1.216e-01 
*LOADS
*RC I_73:A 4.575e-03
*END

*R_NET N74 2.433e-01
*DRIVER NAND2_74:Z
*CELL GTECH_AND2
*C2_R1_C1 1.216e-01 1.881e-02 1.216e-01 
*LOADS
*RC I_74:A 4.575e-03
*END

*R_NET N75 2.433e-01
*DRIVER NAND2_75:Z
*CELL GTECH_AND2
*C2_R1_C1 1.216e-01 1.881e-02 1.216e-01 
*LOADS
*RC I_75:A 4.575e-03
*END

*R_NET N76 2.433e-01
*DRIVER NAND2_76:Z
*CELL GTECH_AND2
*C2_R1_C1 1.216e-01 1.881e-02 1.216e-01 
*LOADS
*RC I_76:A 4.575e-03
*END

*R_NET N77 2.433e-01
*DRIVER NAND2_77:Z
*CELL GTECH_AND2
*C2_R1_C1 1.216e-01 1.881e-02 1.216e-01 
*LOADS
*RC I_77:A 4.575e-03
*END

*R_NET N78 2.433e-01
*DRIVER NAND2_78:Z
*CELL GTECH_AND2
*C2_R1_C1 1.216e-01 1.881e-02 1.216e-01 
*LOADS
*RC I_78:A 4.575e-03
*END

*R_NET N79 2.433e-01
*DRIVER NAND2_79:Z
*CELL GTECH_AND2
*C2_R1_C1 1.216e-01 1.881e-02 1.216e-01 
*LOADS
*RC I_79:A 4.575e-03
*END

*R_NET N80 2.433e-01
*DRIVER NAND2_80:Z
*CELL GTECH_AND2
*C2_R1_C1 1.216e-01 1.881e-02 1.216e-01 
*LOADS
*RC I_80:A 4.575e-03
*END

*R_NET N81 2.433e-01
*DRIVER NAND2_81:Z
*CELL GTECH_AND2
*C2_R1_C1 1.216e-01 1.881e-02 1.216e-01 
*LOADS
*RC I_81:A 4.575e-03
*END

*R_NET N82 2.433e-01
*DRIVER NAND2_82:Z
*CELL GTECH_AND2
*C2_R1_C1 1.216e-01 1.881e-02 1.216e-01 
*LOADS
*RC I_82:A 4.575e-03
*END

*R_NET N83 2.433e-01
*DRIVER NAND2_83:Z
*CELL GTECH_AND2
*C2_R1_C1 1.216e-01 1.881e-02 1.216e-01 
*LOADS
*RC I_83:A 4.575e-03
*END

*R_NET N84 2.433e-01
*DRIVER NAND2_84:Z
*CELL GTECH_AND2
*C2_R1_C1 1.216e-01 1.881e-02 1.216e-01 
*LOADS
*RC I_84:A 4.575e-03
*END

*R_NET N85 2.433e-01
*DRIVER NAND2_85:Z
*CELL GTECH_AND2
*C2_R1_C1 1.216e-01 1.881e-02 1.216e-01 
*LOADS
*RC I_85:A 4.575e-03
*END

*R_NET N86 2.433e-01
*DRIVER NAND2_86:Z
*CELL GTECH_AND2
*C2_R1_C1 1.216e-01 1.881e-02 1.216e-01 
*LOADS
*RC I_86:A 4.575e-03
*END

*R_NET N87 2.433e-01
*DRIVER NAND2_87:Z
*CELL GTECH_AND2
*C2_R1_C1 1.216e-01 1.881e-02 1.216e-01 
*LOADS
*RC I_87:A 4.575e-03
*END

*R_NET N88 2.433e-01
*DRIVER NAND2_88:Z
*CELL GTECH_AND2
*C2_R1_C1 1.216e-01 1.881e-02 1.216e-01 
*LOADS
*RC I_88:A 4.575e-03
*END

*R_NET N89 2.433e-01
*DRIVER NAND2_89:Z
*CELL GTECH_AND2
*C2_R1_C1 1.216e-01 1.881e-02 1.216e-01 
*LOADS
*RC I_89:A 4.575e-03
*END

*R_NET N90 2.433e-01
*DRIVER NAND2_90:Z
*CELL GTECH_AND2
*C2_R1_C1 1.216e-01 1.881e-02 1.216e-01 
*LOADS
*RC I_90:A 4.575e-03
*END

*R_NET N91 2.433e-01
*DRIVER NAND2_91:Z
*CELL GTECH_AND2
*C2_R1_C1 1.216e-01 1.881e-02 1.216e-01 
*LOADS
*RC I_91:A 4.575e-03
*END

*R_NET N92 2.433e-01
*DRIVER NAND2_92:Z
*CELL GTECH_AND2
*C2_R1_C1 1.216e-01 1.881e-02 1.216e-01 
*LOADS
*RC I_92:A 4.575e-03
*END

*R_NET N93 2.433e-01
*DRIVER NAND2_93:Z
*CELL GTECH_AND2
*C2_R1_C1 1.216e-01 1.881e-02 1.216e-01 
*LOADS
*RC I_93:A 4.575e-03
*END

*R_NET N94 2.433e-01
*DRIVER NAND2_94:Z
*CELL GTECH_AND2
*C2_R1_C1 1.216e-01 1.881e-02 1.216e-01 
*LOADS
*RC I_94:A 4.575e-03
*END

*R_NET N95 2.433e-01
*DRIVER NAND2_95:Z
*CELL GTECH_AND2
*C2_R1_C1 1.216e-01 1.881e-02 1.216e-01 
*LOADS
*RC I_95:A 4.575e-03
*END

*R_NET N96 2.433e-01
*DRIVER NAND2_96:Z
*CELL GTECH_AND2
*C2_R1_C1 1.216e-01 1.881e-02 1.216e-01 
*LOADS
*RC I_96:A 4.575e-03
*END

*R_NET N97 2.433e-01
*DRIVER NAND2_97:Z
*CELL GTECH_AND2
*C2_R1_C1 1.216e-01 1.881e-02 1.216e-01 
*LOADS
*RC I_97:A 4.575e-03
*END

*R_NET N98 2.433e-01
*DRIVER NAND2_98:Z
*CELL GTECH_AND2
*C2_R1_C1 1.216e-01 1.881e-02 1.216e-01 
*LOADS
*RC I_98:A 4.575e-03
*END

*R_NET N99 2.433e-01
*DRIVER NAND2_99:Z
*CELL GTECH_AND2
*C2_R1_C1 1.216e-01 1.881e-02 1.216e-01 
*LOADS
*RC I_99:A 4.575e-03
*END

*R_NET N100 2.433e-01
*DRIVER NAND2_100:Z
*CELL GTECH_AND2
*C2_R1_C1 1.216e-01 1.881e-02 1.216e-01 
*LOADS
*RC I_100:A 4.575e-03
*END

*R_NET N101 2.433e-01
*DRIVER NAND2_101:Z
*CELL GTECH_AND2
*C2_R1_C1 1.216e-01 1.881e-02 1.216e-01 
*LOADS
*RC I_101:A 4.575e-03
*END

*R_NET N102 2.433e-01
*DRIVER NAND2_102:Z
*CELL GTECH_AND2
*C2_R1_C1 1.216e-01 1.881e-02 1.216e-01 
*LOADS
*RC I_102:A 4.575e-03
*END

*R_NET N103 2.433e-01
*DRIVER NAND2_103:Z
*CELL GTECH_AND2
*C2_R1_C1 1.216e-01 1.881e-02 1.216e-01 
*LOADS
*RC I_103:A 4.575e-03
*END

*R_NET N104 2.433e-01
*DRIVER NAND2_104:Z
*CELL GTECH_AND2
*C2_R1_C1 1.216e-01 1.881e-02 1.216e-01 
*LOADS
*RC I_104:A 4.575e-03
*END

*R_NET N105 2.433e-01
*DRIVER NAND2_105:Z
*CELL GTECH_AND2
*C2_R1_C1 1.216e-01 1.881e-02 1.216e-01 
*LOADS
*RC I_105:A 4.575e-03
*END

*R_NET N106 2.433e-01
*DRIVER NAND2_106:Z
*CELL GTECH_AND2
*C2_R1_C1 1.216e-01 1.881e-02 1.216e-01 
*LOADS
*RC I_106:A 4.575e-03
*END

*R_NET N107 2.433e-01
*DRIVER NAND2_107:Z
*CELL GTECH_AND2
*C2_R1_C1 1.216e-01 1.881e-02 1.216e-01 
*LOADS
*RC I_107:A 4.575e-03
*END

*R_NET N108 2.433e-01
*DRIVER NAND2_108:Z
*CELL GTECH_AND2
*C2_R1_C1 1.216e-01 1.881e-02 1.216e-01 
*LOADS
*RC I_108:A 4.575e-03
*END

*R_NET N109 2.433e-01
*DRIVER NAND2_109:Z
*CELL GTECH_AND2
*C2_R1_C1 1.216e-01 1.881e-02 1.216e-01 
*LOADS
*RC I_109:A 4.575e-03
*END

*R_NET N110 2.433e-01
*DRIVER NAND2_110:Z
*CELL GTECH_AND2
*C2_R1_C1 1.216e-01 1.881e-02 1.216e-01 
*LOADS
*RC I_110:A 4.575e-03
*END

*R_NET N111 2.433e-01
*DRIVER NAND2_111:Z
*CELL GTECH_AND2
*C2_R1_C1 1.216e-01 1.881e-02 1.216e-01 
*LOADS
*RC I_111:A 4.575e-03
*END

*R_NET N112 2.433e-01
*DRIVER NAND2_112:Z
*CELL GTECH_AND2
*C2_R1_C1 1.216e-01 1.881e-02 1.216e-01 
*LOADS
*RC I_112:A 4.575e-03
*END

*R_NET N113 2.433e-01
*DRIVER NAND2_113:Z
*CELL GTECH_AND2
*C2_R1_C1 1.216e-01 1.881e-02 1.216e-01 
*LOADS
*RC I_113:A 4.575e-03
*END

*R_NET N114 2.433e-01
*DRIVER NAND2_114:Z
*CELL GTECH_AND2
*C2_R1_C1 1.216e-01 1.881e-02 1.216e-01 
*LOADS
*RC I_114:A 4.575e-03
*END

*R_NET N115 2.433e-01
*DRIVER NAND2_115:Z
*CELL GTECH_AND2
*C2_R1_C1 1.216e-01 1.881e-02 1.216e-01 
*LOADS
*RC I_115:A 4.575e-03
*END

*R_NET N116 2.433e-01
*DRIVER NAND2_116:Z
*CELL GTECH_AND2
*C2_R1_C1 1.216e-01 1.881e-02 1.216e-01 
*LOADS
*RC I_116:A 4.575e-03
*END

*R_NET N117 2.433e-01
*DRIVER NAND2_117:Z
*CELL GTECH_AND2
*C2_R1_C1 1.216e-01 1.881e-02 1.216e-01 
*LOADS
*RC I_117:A 4.575e-03
*END

*R_NET N118 2.433e-01
*DRIVER NAND2_118:Z
*CELL GTECH_AND2
*C2_R1_C1 1.216e-01 1.881e-02 1.216e-01 
*LOADS
*RC I_118:A 4.575e-03
*END

*R_NET N119 2.433e-01
*DRIVER NAND2_119:Z
*CELL GTECH_AND2
*C2_R1_C1 1.216e-01 1.881e-02 1.216e-01 
*LOADS
*RC I_119:A 4.575e-03
*END

*R_NET N120 2.433e-01
*DRIVER NAND2_120:Z
*CELL GTECH_AND2
*C2_R1_C1 1.216e-01 1.881e-02 1.216e-01 
*LOADS
*RC I_120:A 4.575e-03
*END

*R_NET N121 2.433e-01
*DRIVER NAND2_121:Z
*CELL GTECH_AND2
*C2_R1_C1 1.216e-01 1.881e-02 1.216e-01 
*LOADS
*RC I_121:A 4.575e-03
*END

*R_NET N122 2.433e-01
*DRIVER NAND2_122:Z
*CELL GTECH_AND2
*C2_R1_C1 1.216e-01 1.881e-02 1.216e-01 
*LOADS
*RC I_122:A 4.575e-03
*END

*R_NET N123 2.433e-01
*DRIVER NAND2_123:Z
*CELL GTECH_AND2
*C2_R1_C1 1.216e-01 1.881e-02 1.216e-01 
*LOADS
*RC I_123:A 4.575e-03
*END

*R_NET N124 2.433e-01
*DRIVER NAND2_124:Z
*CELL GTECH_AND2
*C2_R1_C1 1.216e-01 1.881e-02 1.216e-01 
*LOADS
*RC I_124:A 4.575e-03
*END

*R_NET N125 2.433e-01
*DRIVER NAND2_125:Z
*CELL GTECH_AND2
*C2_R1_C1 1.216e-01 1.881e-02 1.216e-01 
*LOADS
*RC I_125:A 4.575e-03
*END

*R_NET N126 2.433e-01
*DRIVER NAND2_126:Z
*CELL GTECH_AND2
*C2_R1_C1 1.216e-01 1.881e-02 1.216e-01 
*LOADS
*RC I_126:A 4.575e-03
*END

*R_NET N127 2.433e-01
*DRIVER NAND2_127:Z
*CELL GTECH_AND2
*C2_R1_C1 1.216e-01 1.881e-02 1.216e-01 
*LOADS
*RC I_127:A 4.575e-03
*END

*R_NET N128 2.433e-01
*DRIVER NAND2_128:Z
*CELL GTECH_AND2
*C2_R1_C1 1.216e-01 1.881e-02 1.216e-01 
*LOADS
*RC I_128:A 4.575e-03
*END

*R_NET N129 2.433e-01
*DRIVER NAND2_129:Z
*CELL GTECH_AND2
*C2_R1_C1 1.216e-01 1.881e-02 1.216e-01 
*LOADS
*RC I_129:A 4.575e-03
*END

*R_NET N130 2.433e-01
*DRIVER NAND2_130:Z
*CELL GTECH_AND2
*C2_R1_C1 1.216e-01 1.881e-02 1.216e-01 
*LOADS
*RC I_130:A 4.575e-03
*END

*R_NET N131 2.433e-01
*DRIVER NAND2_131:Z
*CELL GTECH_AND2
*C2_R1_C1 1.216e-01 1.881e-02 1.216e-01 
*LOADS
*RC I_131:A 4.575e-03
*END

*R_NET N132 2.433e-01
*DRIVER NAND2_132:Z
*CELL GTECH_AND2
*C2_R1_C1 1.216e-01 1.881e-02 1.216e-01 
*LOADS
*RC I_132:A 4.575e-03
*END

*R_NET N133 2.433e-01
*DRIVER NAND2_133:Z
*CELL GTECH_AND2
*C2_R1_C1 1.216e-01 1.881e-02 1.216e-01 
*LOADS
*RC I_133:A 4.575e-03
*END

*R_NET N134 2.433e-01
*DRIVER NAND2_134:Z
*CELL GTECH_AND2
*C2_R1_C1 1.216e-01 1.881e-02 1.216e-01 
*LOADS
*RC I_134:A 4.575e-03
*END

*R_NET N135 2.433e-01
*DRIVER NAND2_135:Z
*CELL GTECH_AND2
*C2_R1_C1 1.216e-01 1.881e-02 1.216e-01 
*LOADS
*RC I_135:A 4.575e-03
*END

*R_NET N136 2.433e-01
*DRIVER NAND2_136:Z
*CELL GTECH_AND2
*C2_R1_C1 1.216e-01 1.881e-02 1.216e-01 
*LOADS
*RC I_136:A 4.575e-03
*END

*R_NET N137 2.433e-01
*DRIVER NAND2_137:Z
*CELL GTECH_AND2
*C2_R1_C1 1.216e-01 1.881e-02 1.216e-01 
*LOADS
*RC I_137:A 4.575e-03
*END

*R_NET N138 2.433e-01
*DRIVER NAND2_138:Z
*CELL GTECH_AND2
*C2_R1_C1 1.216e-01 1.881e-02 1.216e-01 
*LOADS
*RC I_138:A 4.575e-03
*END

*R_NET N139 2.433e-01
*DRIVER NAND2_139:Z
*CELL GTECH_AND2
*C2_R1_C1 1.216e-01 1.881e-02 1.216e-01 
*LOADS
*RC I_139:A 4.575e-03
*END

*R_NET N140 2.433e-01
*DRIVER NAND2_140:Z
*CELL GTECH_AND2
*C2_R1_C1 1.216e-01 1.881e-02 1.216e-01 
*LOADS
*RC I_140:A 4.575e-03
*END

*R_NET N141 2.433e-01
*DRIVER NAND2_141:Z
*CELL GTECH_AND2
*C2_R1_C1 1.216e-01 1.881e-02 1.216e-01 
*LOADS
*RC I_141:A 4.575e-03
*END

*R_NET N142 2.433e-01
*DRIVER NAND2_142:Z
*CELL GTECH_AND2
*C2_R1_C1 1.216e-01 1.881e-02 1.216e-01 
*LOADS
*RC I_142:A 4.575e-03
*END

*R_NET N143 2.433e-01
*DRIVER NAND2_143:Z
*CELL GTECH_AND2
*C2_R1_C1 1.216e-01 1.881e-02 1.216e-01 
*LOADS
*RC I_143:A 4.575e-03
*END

*R_NET N144 2.433e-01
*DRIVER NAND2_144:Z
*CELL GTECH_AND2
*C2_R1_C1 1.216e-01 1.881e-02 1.216e-01 
*LOADS
*RC I_144:A 4.575e-03
*END

*R_NET N145 2.433e-01
*DRIVER NAND2_145:Z
*CELL GTECH_AND2
*C2_R1_C1 1.216e-01 1.881e-02 1.216e-01 
*LOADS
*RC I_145:A 4.575e-03
*END

*R_NET N146 2.433e-01
*DRIVER NAND2_146:Z
*CELL GTECH_AND2
*C2_R1_C1 1.216e-01 1.881e-02 1.216e-01 
*LOADS
*RC I_146:A 4.575e-03
*END

*R_NET N147 2.433e-01
*DRIVER NAND2_147:Z
*CELL GTECH_AND2
*C2_R1_C1 1.216e-01 1.881e-02 1.216e-01 
*LOADS
*RC I_147:A 4.575e-03
*END

*R_NET N148 2.433e-01
*DRIVER NAND2_148:Z
*CELL GTECH_AND2
*C2_R1_C1 1.216e-01 1.881e-02 1.216e-01 
*LOADS
*RC I_148:A 4.575e-03
*END

*R_NET N149 2.433e-01
*DRIVER NAND2_149:Z
*CELL GTECH_AND2
*C2_R1_C1 1.216e-01 1.881e-02 1.216e-01 
*LOADS
*RC I_149:A 4.575e-03
*END

*R_NET N150 2.433e-01
*DRIVER NAND2_150:Z
*CELL GTECH_AND2
*C2_R1_C1 1.216e-01 1.881e-02 1.216e-01 
*LOADS
*RC I_150:A 4.575e-03
*END

*R_NET N151 2.433e-01
*DRIVER NAND2_151:Z
*CELL GTECH_AND2
*C2_R1_C1 1.216e-01 1.881e-02 1.216e-01 
*LOADS
*RC I_151:A 4.575e-03
*END

*R_NET N152 2.433e-01
*DRIVER NAND2_152:Z
*CELL GTECH_AND2
*C2_R1_C1 1.216e-01 1.881e-02 1.216e-01 
*LOADS
*RC I_152:A 4.575e-03
*END

*R_NET N153 2.433e-01
*DRIVER NAND2_153:Z
*CELL GTECH_AND2
*C2_R1_C1 1.216e-01 1.881e-02 1.216e-01 
*LOADS
*RC I_153:A 4.575e-03
*END

*R_NET N154 2.433e-01
*DRIVER NAND2_154:Z
*CELL GTECH_AND2
*C2_R1_C1 1.216e-01 1.881e-02 1.216e-01 
*LOADS
*RC I_154:A 4.575e-03
*END

*R_NET N155 2.433e-01
*DRIVER NAND2_155:Z
*CELL GTECH_AND2
*C2_R1_C1 1.216e-01 1.881e-02 1.216e-01 
*LOADS
*RC I_155:A 4.575e-03
*END

*R_NET N156 2.433e-01
*DRIVER NAND2_156:Z
*CELL GTECH_AND2
*C2_R1_C1 1.216e-01 1.881e-02 1.216e-01 
*LOADS
*RC I_156:A 4.575e-03
*END

*R_NET N157 2.433e-01
*DRIVER NAND2_157:Z
*CELL GTECH_AND2
*C2_R1_C1 1.216e-01 1.881e-02 1.216e-01 
*LOADS
*RC I_157:A 4.575e-03
*END

*R_NET N158 2.433e-01
*DRIVER NAND2_158:Z
*CELL GTECH_AND2
*C2_R1_C1 1.216e-01 1.881e-02 1.216e-01 
*LOADS
*RC I_158:A 4.575e-03
*END

*R_NET N159 2.433e-01
*DRIVER NAND2_159:Z
*CELL GTECH_AND2
*C2_R1_C1 1.216e-01 1.881e-02 1.216e-01 
*LOADS
*RC I_159:A 4.575e-03
*END

*R_NET N160 2.433e-01
*DRIVER NAND2_160:Z
*CELL GTECH_AND2
*C2_R1_C1 1.216e-01 1.881e-02 1.216e-01 
*LOADS
*RC I_160:A 4.575e-03
*END

*R_NET N161 2.433e-01
*DRIVER NAND2_161:Z
*CELL GTECH_AND2
*C2_R1_C1 1.216e-01 1.881e-02 1.216e-01 
*LOADS
*RC I_161:A 4.575e-03
*END

*R_NET N162 2.433e-01
*DRIVER NAND2_162:Z
*CELL GTECH_AND2
*C2_R1_C1 1.216e-01 1.881e-02 1.216e-01 
*LOADS
*RC I_162:A 4.575e-03
*END

*R_NET N163 2.433e-01
*DRIVER NAND2_163:Z
*CELL GTECH_AND2
*C2_R1_C1 1.216e-01 1.881e-02 1.216e-01 
*LOADS
*RC I_163:A 4.575e-03
*END

*R_NET N164 2.433e-01
*DRIVER NAND2_164:Z
*CELL GTECH_AND2
*C2_R1_C1 1.216e-01 1.881e-02 1.216e-01 
*LOADS
*RC I_164:A 4.575e-03
*END

*R_NET N165 2.433e-01
*DRIVER NAND2_165:Z
*CELL GTECH_AND2
*C2_R1_C1 1.216e-01 1.881e-02 1.216e-01 
*LOADS
*RC I_165:A 4.575e-03
*END

*R_NET N166 2.433e-01
*DRIVER NAND2_166:Z
*CELL GTECH_AND2
*C2_R1_C1 1.216e-01 1.881e-02 1.216e-01 
*LOADS
*RC I_166:A 4.575e-03
*END

*R_NET N167 2.433e-01
*DRIVER NAND2_167:Z
*CELL GTECH_AND2
*C2_R1_C1 1.216e-01 1.881e-02 1.216e-01 
*LOADS
*RC I_167:A 4.575e-03
*END

*R_NET N168 2.433e-01
*DRIVER NAND2_168:Z
*CELL GTECH_AND2
*C2_R1_C1 1.216e-01 1.881e-02 1.216e-01 
*LOADS
*RC I_168:A 4.575e-03
*END

*R_NET N169 2.433e-01
*DRIVER NAND2_169:Z
*CELL GTECH_AND2
*C2_R1_C1 1.216e-01 1.881e-02 1.216e-01 
*LOADS
*RC I_169:A 4.575e-03
*END

*R_NET N170 2.433e-01
*DRIVER NAND2_170:Z
*CELL GTECH_AND2
*C2_R1_C1 1.216e-01 1.881e-02 1.216e-01 
*LOADS
*RC I_170:A 4.575e-03
*END

*R_NET N171 2.433e-01
*DRIVER NAND2_171:Z
*CELL GTECH_AND2
*C2_R1_C1 1.216e-01 1.881e-02 1.216e-01 
*LOADS
*RC I_171:A 4.575e-03
*END

*R_NET N172 2.433e-01
*DRIVER NAND2_172:Z
*CELL GTECH_AND2
*C2_R1_C1 1.216e-01 1.881e-02 1.216e-01 
*LOADS
*RC I_172:A 4.575e-03
*END

*R_NET N173 2.433e-01
*DRIVER NAND2_173:Z
*CELL GTECH_AND2
*C2_R1_C1 1.216e-01 1.881e-02 1.216e-01 
*LOADS
*RC I_173:A 4.575e-03
*END

*R_NET N174 2.433e-01
*DRIVER NAND2_174:Z
*CELL GTECH_AND2
*C2_R1_C1 1.216e-01 1.881e-02 1.216e-01 
*LOADS
*RC I_174:A 4.575e-03
*END

*R_NET N175 2.433e-01
*DRIVER NAND2_175:Z
*CELL GTECH_AND2
*C2_R1_C1 1.216e-01 1.881e-02 1.216e-01 
*LOADS
*RC I_175:A 4.575e-03
*END

*R_NET N176 2.433e-01
*DRIVER NAND2_176:Z
*CELL GTECH_AND2
*C2_R1_C1 1.216e-01 1.881e-02 1.216e-01 
*LOADS
*RC I_176:A 4.575e-03
*END

*R_NET N177 2.433e-01
*DRIVER NAND2_177:Z
*CELL GTECH_AND2
*C2_R1_C1 1.216e-01 1.881e-02 1.216e-01 
*LOADS
*RC I_177:A 4.575e-03
*END

*R_NET N178 2.433e-01
*DRIVER NAND2_178:Z
*CELL GTECH_AND2
*C2_R1_C1 1.216e-01 1.881e-02 1.216e-01 
*LOADS
*RC I_178:A 4.575e-03
*END

*R_NET N179 2.433e-01
*DRIVER NAND2_179:Z
*CELL GTECH_AND2
*C2_R1_C1 1.216e-01 1.881e-02 1.216e-01 
*LOADS
*RC I_179:A 4.575e-03
*END

*R_NET N180 2.433e-01
*DRIVER NAND2_180:Z
*CELL GTECH_AND2
*C2_R1_C1 1.216e-01 1.881e-02 1.216e-01 
*LOADS
*RC I_180:A 4.575e-03
*END

*R_NET N181 2.433e-01
*DRIVER NAND2_181:Z
*CELL GTECH_AND2
*C2_R1_C1 1.216e-01 1.881e-02 1.216e-01 
*LOADS
*RC I_181:A 4.575e-03
*END

*R_NET N182 2.433e-01
*DRIVER NAND2_182:Z
*CELL GTECH_AND2
*C2_R1_C1 1.216e-01 1.881e-02 1.216e-01 
*LOADS
*RC I_182:A 4.575e-03
*END

*R_NET N183 2.433e-01
*DRIVER NAND2_183:Z
*CELL GTECH_AND2
*C2_R1_C1 1.216e-01 1.881e-02 1.216e-01 
*LOADS
*RC I_183:A 4.575e-03
*END

*R_NET N184 2.433e-01
*DRIVER NAND2_184:Z
*CELL GTECH_AND2
*C2_R1_C1 1.216e-01 1.881e-02 1.216e-01 
*LOADS
*RC I_184:A 4.575e-03
*END

*R_NET N185 2.433e-01
*DRIVER NAND2_185:Z
*CELL GTECH_AND2
*C2_R1_C1 1.216e-01 1.881e-02 1.216e-01 
*LOADS
*RC I_185:A 4.575e-03
*END

*R_NET N186 2.433e-01
*DRIVER NAND2_186:Z
*CELL GTECH_AND2
*C2_R1_C1 1.216e-01 1.881e-02 1.216e-01 
*LOADS
*RC I_186:A 4.575e-03
*END

*R_NET N187 2.433e-01
*DRIVER NAND2_187:Z
*CELL GTECH_AND2
*C2_R1_C1 1.216e-01 1.881e-02 1.216e-01 
*LOADS
*RC I_187:A 4.575e-03
*END

*R_NET N188 2.433e-01
*DRIVER NAND2_188:Z
*CELL GTECH_AND2
*C2_R1_C1 1.216e-01 1.881e-02 1.216e-01 
*LOADS
*RC I_188:A 4.575e-03
*END

*R_NET N189 2.433e-01
*DRIVER NAND2_189:Z
*CELL GTECH_AND2
*C2_R1_C1 1.216e-01 1.881e-02 1.216e-01 
*LOADS
*RC I_189:A 4.575e-03
*END

*R_NET N190 2.433e-01
*DRIVER NAND2_190:Z
*CELL GTECH_AND2
*C2_R1_C1 1.216e-01 1.881e-02 1.216e-01 
*LOADS
*RC I_190:A 4.575e-03
*END

*R_NET N191 2.433e-01
*DRIVER NAND2_191:Z
*CELL GTECH_AND2
*C2_R1_C1 1.216e-01 1.881e-02 1.216e-01 
*LOADS
*RC I_191:A 4.575e-03
*END

*R_NET N192 2.433e-01
*DRIVER NAND2_192:Z
*CELL GTECH_AND2
*C2_R1_C1 1.216e-01 1.881e-02 1.216e-01 
*LOADS
*RC I_192:A 4.575e-03
*END

*R_NET N193 2.433e-01
*DRIVER NAND2_193:Z
*CELL GTECH_AND2
*C2_R1_C1 1.216e-01 1.881e-02 1.216e-01 
*LOADS
*RC I_193:A 4.575e-03
*END

*R_NET N194 2.433e-01
*DRIVER NAND2_194:Z
*CELL GTECH_AND2
*C2_R1_C1 1.216e-01 1.881e-02 1.216e-01 
*LOADS
*RC I_194:A 4.575e-03
*END

*R_NET N195 2.433e-01
*DRIVER NAND2_195:Z
*CELL GTECH_AND2
*C2_R1_C1 1.216e-01 1.881e-02 1.216e-01 
*LOADS
*RC I_195:A 4.575e-03
*END

*R_NET N196 2.433e-01
*DRIVER NAND2_196:Z
*CELL GTECH_AND2
*C2_R1_C1 1.216e-01 1.881e-02 1.216e-01 
*LOADS
*RC I_196:A 4.575e-03
*END

*R_NET N197 2.433e-01
*DRIVER NAND2_197:Z
*CELL GTECH_AND2
*C2_R1_C1 1.216e-01 1.881e-02 1.216e-01 
*LOADS
*RC I_197:A 4.575e-03
*END

*R_NET N198 2.433e-01
*DRIVER NAND2_198:Z
*CELL GTECH_AND2
*C2_R1_C1 1.216e-01 1.881e-02 1.216e-01 