*SPEF "IEEE 1481-1999"
*DESIGN "c17"
*DATE "Sun Oct 16 23:46:06 2022"
*VENDOR "SYNOPSYS INC"
*PROGRAM "Synopsys Design Compiler"
*VERSION "S-2021.06-SP5-3"
*DESIGN_FLOW "SYNTHESIS"
*DIVIDER /
*DELIMITER :
*BUS_DELIMITER []
*T_UNIT 1.0 NS
*C_UNIT 0.0010 PF
*R_UNIT 1000.0 KOHM
*L_UNIT 1.0 HENRY

*PORTS

N1 I *L 0.000e+00 *S 0.000e+00 0.000e+00 
N2 I *L 0.000e+00 *S 0.000e+00 0.000e+00 
N3 I *L 0.000e+00 *S 0.000e+00 0.000e+00 
N6 I *L 0.000e+00 *S 0.000e+00 0.000e+00 
N7 I *L 0.000e+00 *S 0.000e+00 0.000e+00 
N22 O *L 0.000e+00 *S 0.000e+00 0.000e+00 
N23 O *L 0.000e+00 *S 0.000e+00 0.000e+00 

*R_NET N0 2.433e-01
*DRIVER NAND2_1:Z
*CELL GTECH_AND2
*C2_R1_C1 1.216e-01 1.881e-02 1.216e-01 
*LOADS
*RC I_0:A 4.575e-03
*END

*R_NET N4 2.433e-01
*DRIVER NAND2_2:Z
*CELL GTECH_AND2
*C2_R1_C1 1.216e-01 1.881e-02 1.216e-01 
*LOADS
*RC I_1:A 4.575e-03
*END

*R_NET N5 2.433e-01
*DRIVER NAND2_3:Z
*CELL GTECH_AND2
*C2_R1_C1 1.216e-01 1.881e-02 1.216e-01 
*LOADS
*RC I_2:A 4.575e-03
*END

*R_NET N8 2.433e-01
*DRIVER NAND2_4:Z
*CELL GTECH_AND2
*C2_R1_C1 1.216e-01 1.881e-02 1.216e-01 
*LOADS
*RC I_3:A 4.575e-03
*END

*R_NET N9 2.433e-01
*DRIVER NAND2_5:Z
*CELL GTECH_AND2
*C2_R1_C1 1.216e-01 1.881e-02 1.216e-01 
*LOADS
*RC I_4:A 4.575e-03
*END

*R_NET N12 2.433e-01
*DRIVER NAND2_6:Z
*CELL GTECH_AND2
*C2_R1_C1 1.216e-01 1.881e-02 1.216e-01 
*LOADS
*RC I_5:A 4.575e-03
*END

*R_NET N1 2.433e-01
*DRIVER N1
*CELL NULL
*C2_R1_C1 1.216e-01 1.881e-02 1.216e-01 
*LOADS
*RC NAND2_1:A 4.575e-03
*END

*R_NET N2 2.433e-01
*DRIVER N2
*CELL NULL
*C2_R1_C1 1.216e-01 1.881e-02 1.216e-01 
*LOADS
*RC NAND2_3:A 4.575e-03
*END

*R_NET N3 5.436e-01
*DRIVER N3
*CELL NULL
*C2_R1_C1 2.718e-01 4.203e-02 2.718e-01 
*LOADS
*RC NAND2_2:A 2.285e-02
*RC NAND2_1:B 2.285e-02
*END

*R_NET N6 2.433e-01
*DRIVER N6
*CELL NULL
*C2_R1_C1 1.216e-01 1.881e-02 1.216e-01 
*LOADS
*RC NAND2_2:B 4.575e-03
*END

*R_NET N7 2.433e-01
*DRIVER N7
*CELL NULL
*C2_R1_C1 1.216e-01 1.881e-02 1.216e-01 
*LOADS
*RC NAND2_4:B 4.575e-03
*END

*R_NET N22 2.433e-01
*DRIVER I_4:Z
*CELL GTECH_NOT
*C2_R1_C1 1.216e-01 1.881e-02 1.216e-01 
*LOADS
*RC N22 4.575e-03
*END

*R_NET N23 2.433e-01
*DRIVER I_5:Z
*CELL GTECH_NOT
*C2_R1_C1 1.216e-01 1.881e-02 1.216e-01 
*LOADS
*RC N23 4.575e-03
*END

*R_NET N10 2.433e-01
*DRIVER I_0:Z
*CELL GTECH_NOT
*C2_R1_C1 1.216e-01 1.881e-02 1.216e-01 
*LOADS
*RC NAND2_5:A 4.575e-03
*END

*R_NET N11 5.436e-01
*DRIVER I_1:Z
*CELL GTECH_NOT
*C2_R1_C1 2.718e-01 4.203e-02 2.718e-01 
*LOADS
*RC NAND2_4:A 2.285e-02
*RC NAND2_3:B 2.285e-02
*END

*R_NET N16 5.436e-01
*DRIVER I_2:Z
*CELL GTECH_NOT
*C2_R1_C1 2.718e-01 4.203e-02 2.718e-01 
*LOADS
*RC NAND2_6:A 2.285e-02
*RC NAND2_5:B 2.285e-02
*END

*R_NET N19 2.433e-01
*DRIVER I_3:Z
*CELL GTECH_NOT
*C2_R1_C1 1.216e-01 1.881e-02 1.216e-01 
*LOADS
*RC NAND2_6:B 4.575e-03
*END
