*SPEF "IEEE 1481-1999"
*DESIGN "c880"
*DATE "Sun Oct 16 23:46:25 2022"
*VENDOR "SYNOPSYS INC"
*PROGRAM "Synopsys Design Compiler"
*VERSION "S-2021.06-SP5-3"
*DESIGN_FLOW "SYNTHESIS"
*DIVIDER /
*DELIMITER :
*BUS_DELIMITER []
*T_UNIT 1.0 NS
*C_UNIT 0.0010 PF
*R_UNIT 1000.0 KOHM
*L_UNIT 1.0 HENRY

*PORTS

N1 I *L 0.000e+00 *S 0.000e+00 0.000e+00 
N8 I *L 0.000e+00 *S 0.000e+00 0.000e+00 
N13 I *L 0.000e+00 *S 0.000e+00 0.000e+00 
N17 I *L 0.000e+00 *S 0.000e+00 0.000e+00 
N26 I *L 0.000e+00 *S 0.000e+00 0.000e+00 
N29 I *L 0.000e+00 *S 0.000e+00 0.000e+00 
N36 I *L 0.000e+00 *S 0.000e+00 0.000e+00 
N42 I *L 0.000e+00 *S 0.000e+00 0.000e+00 
N51 I *L 0.000e+00 *S 0.000e+00 0.000e+00 
N55 I *L 0.000e+00 *S 0.000e+00 0.000e+00 
N59 I *L 0.000e+00 *S 0.000e+00 0.000e+00 
N68 I *L 0.000e+00 *S 0.000e+00 0.000e+00 
N72 I *L 0.000e+00 *S 0.000e+00 0.000e+00 
N73 I *L 0.000e+00 *S 0.000e+00 0.000e+00 
N74 I *L 0.000e+00 *S 0.000e+00 0.000e+00 
N75 I *L 0.000e+00 *S 0.000e+00 0.000e+00 
N80 I *L 0.000e+00 *S 0.000e+00 0.000e+00 
N85 I *L 0.000e+00 *S 0.000e+00 0.000e+00 
N86 I *L 0.000e+00 *S 0.000e+00 0.000e+00 
N87 I *L 0.000e+00 *S 0.000e+00 0.000e+00 
N88 I *L 0.000e+00 *S 0.000e+00 0.000e+00 
N89 I *L 0.000e+00 *S 0.000e+00 0.000e+00 
N90 I *L 0.000e+00 *S 0.000e+00 0.000e+00 
N91 I *L 0.000e+00 *S 0.000e+00 0.000e+00 
N96 I *L 0.000e+00 *S 0.000e+00 0.000e+00 
N101 I *L 0.000e+00 *S 0.000e+00 0.000e+00 
N106 I *L 0.000e+00 *S 0.000e+00 0.000e+00 
N111 I *L 0.000e+00 *S 0.000e+00 0.000e+00 
N116 I *L 0.000e+00 *S 0.000e+00 0.000e+00 
N121 I *L 0.000e+00 *S 0.000e+00 0.000e+00 
N126 I *L 0.000e+00 *S 0.000e+00 0.000e+00 
N130 I *L 0.000e+00 *S 0.000e+00 0.000e+00 
N135 I *L 0.000e+00 *S 0.000e+00 0.000e+00 
N138 I *L 0.000e+00 *S 0.000e+00 0.000e+00 
N143 I *L 0.000e+00 *S 0.000e+00 0.000e+00 
N146 I *L 0.000e+00 *S 0.000e+00 0.000e+00 
N149 I *L 0.000e+00 *S 0.000e+00 0.000e+00 
N152 I *L 0.000e+00 *S 0.000e+00 0.000e+00 
N153 I *L 0.000e+00 *S 0.000e+00 0.000e+00 
N156 I *L 0.000e+00 *S 0.000e+00 0.000e+00 
N159 I *L 0.000e+00 *S 0.000e+00 0.000e+00 
N165 I *L 0.000e+00 *S 0.000e+00 0.000e+00 
N171 I *L 0.000e+00 *S 0.000e+00 0.000e+00 
N177 I *L 0.000e+00 *S 0.000e+00 0.000e+00 
N183 I *L 0.000e+00 *S 0.000e+00 0.000e+00 
N189 I *L 0.000e+00 *S 0.000e+00 0.000e+00 
N195 I *L 0.000e+00 *S 0.000e+00 0.000e+00 
N201 I *L 0.000e+00 *S 0.000e+00 0.000e+00 
N207 I *L 0.000e+00 *S 0.000e+00 0.000e+00 
N210 I *L 0.000e+00 *S 0.000e+00 0.000e+00 
N219 I *L 0.000e+00 *S 0.000e+00 0.000e+00 
N228 I *L 0.000e+00 *S 0.000e+00 0.000e+00 
N237 I *L 0.000e+00 *S 0.000e+00 0.000e+00 
N246 I *L 0.000e+00 *S 0.000e+00 0.000e+00 
N255 I *L 0.000e+00 *S 0.000e+00 0.000e+00 
N259 I *L 0.000e+00 *S 0.000e+00 0.000e+00 
N260 I *L 0.000e+00 *S 0.000e+00 0.000e+00 
N261 I *L 0.000e+00 *S 0.000e+00 0.000e+00 
N267 I *L 0.000e+00 *S 0.000e+00 0.000e+00 
N268 I *L 0.000e+00 *S 0.000e+00 0.000e+00 
N388 O *L 0.000e+00 *S 0.000e+00 0.000e+00 
N389 O *L 0.000e+00 *S 0.000e+00 0.000e+00 
N390 O *L 0.000e+00 *S 0.000e+00 0.000e+00 
N391 O *L 0.000e+00 *S 0.000e+00 0.000e+00 
N418 O *L 0.000e+00 *S 0.000e+00 0.000e+00 
N419 O *L 0.000e+00 *S 0.000e+00 0.000e+00 
N420 O *L 0.000e+00 *S 0.000e+00 0.000e+00 
N421 O *L 0.000e+00 *S 0.000e+00 0.000e+00 
N422 O *L 0.000e+00 *S 0.000e+00 0.000e+00 
N423 O *L 0.000e+00 *S 0.000e+00 0.000e+00 
N446 O *L 0.000e+00 *S 0.000e+00 0.000e+00 
N447 O *L 0.000e+00 *S 0.000e+00 0.000e+00 
N448 O *L 0.000e+00 *S 0.000e+00 0.000e+00 
N449 O *L 0.000e+00 *S 0.000e+00 0.000e+00 
N450 O *L 0.000e+00 *S 0.000e+00 0.000e+00 
N767 O *L 0.000e+00 *S 0.000e+00 0.000e+00 
N768 O *L 0.000e+00 *S 0.000e+00 0.000e+00 
N850 O *L 0.000e+00 *S 0.000e+00 0.000e+00 
N863 O *L 0.000e+00 *S 0.000e+00 0.000e+00 
N864 O *L 0.000e+00 *S 0.000e+00 0.000e+00 
N865 O *L 0.000e+00 *S 0.000e+00 0.000e+00 
N866 O *L 0.000e+00 *S 0.000e+00 0.000e+00 
N874 O *L 0.000e+00 *S 0.000e+00 0.000e+00 
N878 O *L 0.000e+00 *S 0.000e+00 0.000e+00 
N879 O *L 0.000e+00 *S 0.000e+00 0.000e+00 
N880 O *L 0.000e+00 *S 0.000e+00 0.000e+00 

*R_NET N0 2.433e-01
*DRIVER NAND2_8:Z
*CELL GTECH_AND2
*C2_R1_C1 1.216e-01 1.881e-02 1.216e-01 
*LOADS
*RC I_0:A 4.575e-03
*END

*R_NET N2 2.433e-01
*DRIVER NAND2_20:Z
*CELL GTECH_AND2
*C2_R1_C1 1.216e-01 1.881e-02 1.216e-01 
*LOADS
*RC I_1:A 4.575e-03
*END

*R_NET N3 2.433e-01
*DRIVER NAND2_22:Z
*CELL GTECH_AND2
*C2_R1_C1 1.216e-01 1.881e-02 1.216e-01 
*LOADS
*RC I_2:A 4.575e-03
*END

*R_NET N4 2.433e-01
*DRIVER NAND2_24:Z
*CELL GTECH_AND2
*C2_R1_C1 1.216e-01 1.881e-02 1.216e-01 
*LOADS
*RC I_3:A 4.575e-03
*END

*R_NET N5 2.433e-01
*DRIVER NAND2_26:Z
*CELL GTECH_AND2
*C2_R1_C1 1.216e-01 1.881e-02 1.216e-01 
*LOADS
*RC I_4:A 4.575e-03
*END

*R_NET N6 2.433e-01
*DRIVER NAND2_33:Z
*CELL GTECH_AND2
*C2_R1_C1 1.216e-01 1.881e-02 1.216e-01 
*LOADS
*RC I_5:A 4.575e-03
*END

*R_NET N7 2.433e-01
*DRIVER NAND2_36:Z
*CELL GTECH_AND2
*C2_R1_C1 1.216e-01 1.881e-02 1.216e-01 
*LOADS
*RC I_6:A 4.575e-03
*END

*R_NET N9 2.433e-01
*DRIVER NAND2_38:Z
*CELL GTECH_AND2
*C2_R1_C1 1.216e-01 1.881e-02 1.216e-01 
*LOADS
*RC I_7:A 4.575e-03
*END

*R_NET N10 2.433e-01
*DRIVER NAND2_40:Z
*CELL GTECH_AND2
*C2_R1_C1 1.216e-01 1.881e-02 1.216e-01 
*LOADS
*RC I_8:A 4.575e-03
*END

*R_NET N11 2.433e-01
*DRIVER NAND2_42:Z
*CELL GTECH_AND2
*C2_R1_C1 1.216e-01 1.881e-02 1.216e-01 
*LOADS
*RC I_9:A 4.575e-03
*END

*R_NET N12 2.433e-01
*DRIVER NAND2_67:Z
*CELL GTECH_AND2
*C2_R1_C1 1.216e-01 1.881e-02 1.216e-01 
*LOADS
*RC I_10:A 4.575e-03
*END

*R_NET N14 2.433e-01
*DRIVER NAND2_69:Z
*CELL GTECH_AND2
*C2_R1_C1 1.216e-01 1.881e-02 1.216e-01 
*LOADS
*RC I_11:A 4.575e-03
*END

*R_NET N15 2.433e-01
*DRIVER NAND2_70:Z
*CELL GTECH_AND2
*C2_R1_C1 1.216e-01 1.881e-02 1.216e-01 
*LOADS
*RC I_12:A 4.575e-03
*END

*R_NET N16 2.433e-01
*DRIVER NAND2_71:Z
*CELL GTECH_AND2
*C2_R1_C1 1.216e-01 1.881e-02 1.216e-01 
*LOADS
*RC I_13:A 4.575e-03
*END

*R_NET N18 2.433e-01
*DRIVER NAND2_72:Z
*CELL GTECH_AND2
*C2_R1_C1 1.216e-01 1.881e-02 1.216e-01 
*LOADS
*RC I_14:A 4.575e-03
*END

*R_NET N19 2.433e-01
*DRIVER NAND2_75:Z
*CELL GTECH_AND2
*C2_R1_C1 1.216e-01 1.881e-02 1.216e-01 
*LOADS
*RC I_15:A 4.575e-03
*END

*R_NET N20 2.433e-01
*DRIVER NAND2_76:Z
*CELL GTECH_AND2
*C2_R1_C1 1.216e-01 1.881e-02 1.216e-01 
*LOADS
*RC I_16:A 4.575e-03
*END

*R_NET N21 2.433e-01
*DRIVER NAND2_77:Z
*CELL GTECH_AND2
*C2_R1_C1 1.216e-01 1.881e-02 1.216e-01 
*LOADS
*RC I_17:A 4.575e-03
*END

*R_NET N22 2.433e-01
*DRIVER NAND2_78:Z
*CELL GTECH_AND2
*C2_R1_C1 1.216e-01 1.881e-02 1.216e-01 
*LOADS
*RC I_18:A 4.575e-03
*END

*R_NET N23 2.433e-01
*DRIVER NAND2_96:Z
*CELL GTECH_AND2
*C2_R1_C1 1.216e-01 1.881e-02 1.216e-01 
*LOADS
*RC I_19:A 4.575e-03
*END

*R_NET N24 2.433e-01
*DRIVER NAND2_128:Z
*CELL GTECH_AND2
*C2_R1_C1 1.216e-01 1.881e-02 1.216e-01 
*LOADS
*RC I_20:A 4.575e-03
*END

*R_NET N25 2.433e-01
*DRIVER NAND2_137:Z
*CELL GTECH_AND2
*C2_R1_C1 1.216e-01 1.881e-02 1.216e-01 
*LOADS
*RC I_21:A 4.575e-03
*END

*R_NET N27 2.433e-01
*DRIVER NAND2_144:Z
*CELL GTECH_AND2
*C2_R1_C1 1.216e-01 1.881e-02 1.216e-01 
*LOADS
*RC I_22:A 4.575e-03
*END

*R_NET N28 2.433e-01
*DRIVER NAND2_146:Z
*CELL GTECH_AND2
*C2_R1_C1 1.216e-01 1.881e-02 1.216e-01 
*LOADS
*RC I_23:A 4.575e-03
*END

*R_NET N30 2.433e-01
*DRIVER NAND2_164:Z
*CELL GTECH_AND2
*C2_R1_C1 1.216e-01 1.881e-02 1.216e-01 
*LOADS
*RC I_24:A 4.575e-03
*END

*R_NET N31 2.433e-01
*DRIVER NAND2_166:Z
*CELL GTECH_AND2
*C2_R1_C1 1.216e-01 1.881e-02 1.216e-01 
*LOADS
*RC I_25:A 4.575e-03
*END

*R_NET N32 2.433e-01
*DRIVER NAND2_173:Z
*CELL GTECH_AND2
*C2_R1_C1 1.216e-01 1.881e-02 1.216e-01 
*LOADS
*RC I_26:A 4.575e-03
*END

*R_NET N33 2.433e-01
*DRIVER NAND2_174:Z
*CELL GTECH_AND2
*C2_R1_C1 1.216e-01 1.881e-02 1.216e-01 
*LOADS
*RC I_27:A 4.575e-03
*END

*R_NET N34 2.433e-01
*DRIVER NAND2_175:Z
*CELL GTECH_AND2
*C2_R1_C1 1.216e-01 1.881e-02 1.216e-01 
*LOADS
*RC I_28:A 4.575e-03
*END

*R_NET N35 2.433e-01
*DRIVER NAND2_176:Z
*CELL GTECH_AND2
*C2_R1_C1 1.216e-01 1.881e-02 1.216e-01 
*LOADS
*RC I_29:A 4.575e-03
*END

*R_NET N37 2.433e-01
*DRIVER NAND2_177:Z
*CELL GTECH_AND2
*C2_R1_C1 1.216e-01 1.881e-02 1.216e-01 
*LOADS
*RC I_30:A 4.575e-03
*END

*R_NET N38 2.433e-01
*DRIVER NAND2_186:Z
*CELL GTECH_AND2
*C2_R1_C1 1.216e-01 1.881e-02 1.216e-01 
*LOADS
*RC I_31:A 4.575e-03
*END

*R_NET N39 2.433e-01
*DRIVER NAND2_187:Z
*CELL GTECH_AND2
*C2_R1_C1 1.216e-01 1.881e-02 1.216e-01 
*LOADS
*RC I_32:A 4.575e-03
*END

*R_NET N40 2.433e-01
*DRIVER NAND2_191:Z
*CELL GTECH_AND2
*C2_R1_C1 1.216e-01 1.881e-02 1.216e-01 
*LOADS
*RC I_33:A 4.575e-03
*END

*R_NET N41 2.433e-01
*DRIVER NAND2_192:Z
*CELL GTECH_AND2
*C2_R1_C1 1.216e-01 1.881e-02 1.216e-01 
*LOADS
*RC I_34:A 4.575e-03
*END

*R_NET N43 2.433e-01
*DRIVER NAND2_193:Z
*CELL GTECH_AND2
*C2_R1_C1 1.216e-01 1.881e-02 1.216e-01 
*LOADS
*RC I_35:A 4.575e-03
*END

*R_NET N44 2.433e-01
*DRIVER NAND2_194:Z
*CELL GTECH_AND2
*C2_R1_C1 1.216e-01 1.881e-02 1.216e-01 
*LOADS
*RC I_36:A 4.575e-03
*END

*R_NET N45 2.433e-01
*DRIVER NAND2_195:Z
*CELL GTECH_AND2
*C2_R1_C1 1.216e-01 1.881e-02 1.216e-01 
*LOADS
*RC I_37:A 4.575e-03
*END

*R_NET N46 2.433e-01
*DRIVER NAND2_196:Z
*CELL GTECH_AND2
*C2_R1_C1 1.216e-01 1.881e-02 1.216e-01 
*LOADS
*RC I_38:A 4.575e-03
*END

*R_NET N47 2.433e-01
*DRIVER NAND2_197:Z
*CELL GTECH_AND2
*C2_R1_C1 1.216e-01 1.881e-02 1.216e-01 
*LOADS
*RC I_39:A 4.575e-03
*END

*R_NET N48 2.433e-01
*DRIVER NAND2_198:Z
*CELL GTECH_AND2
*C2_R1_C1 1.216e-01 1.881e-02 1.216e-01 
*LOADS
*RC I_40:A 4.575e-03
*END

*R_NET N49 2.433e-01
*DRIVER NAND2_204:Z
*CELL GTECH_AND2
*C2_R1_C1 1.216e-01 1.881e-02 1.216e-01 
*LOADS
*RC I_41:A 4.575e-03
*END

*R_NET N50 2.433e-01
*DRIVER NAND2_207:Z
*CELL GTECH_AND2
*C2_R1_C1 1.216e-01 1.881e-02 1.216e-01 
*LOADS
*RC I_42:A 4.575e-03
*END

*R_NET N52 2.433e-01
*DRIVER NAND2_210:Z
*CELL GTECH_AND2
*C2_R1_C1 1.216e-01 1.881e-02 1.216e-01 
*LOADS
*RC I_43:A 4.575e-03
*END

*R_NET N53 2.433e-01
*DRIVER NAND2_213:Z
*CELL GTECH_AND2
*C2_R1_C1 1.216e-01 1.881e-02 1.216e-01 
*LOADS
*RC I_44:A 4.575e-03
*END

*R_NET N54 2.433e-01
*DRIVER NAND2_216:Z
*CELL GTECH_AND2
*C2_R1_C1 1.216e-01 1.881e-02 1.216e-01 
*LOADS
*RC I_45:A 4.575e-03
*END

*R_NET N56 2.433e-01
*DRIVER NAND2_219:Z
*CELL GTECH_AND2
*C2_R1_C1 1.216e-01 1.881e-02 1.216e-01 
*LOADS
*RC I_46:A 4.575e-03
*END

*R_NET N57 2.433e-01
*DRIVER NAND2_222:Z
*CELL GTECH_AND2
*C2_R1_C1 1.216e-01 1.881e-02 1.216e-01 
*LOADS
*RC I_47:A 4.575e-03
*END

*R_NET N58 2.433e-01
*DRIVER NAND2_225:Z
*CELL GTECH_AND2
*C2_R1_C1 1.216e-01 1.881e-02 1.216e-01 
*LOADS
*RC I_48:A 4.575e-03
*END

*R_NET N60 2.433e-01
*DRIVER NAND2_254:Z
*CELL GTECH_AND2
*C2_R1_C1 1.216e-01 1.881e-02 1.216e-01 
*LOADS
*RC I_49:A 4.575e-03
*END

*R_NET N61 2.433e-01
*DRIVER NAND2_283:Z
*CELL GTECH_AND2
*C2_R1_C1 1.216e-01 1.881e-02 1.216e-01 
*LOADS
*RC I_50:A 4.575e-03
*END

*R_NET N62 2.433e-01
*DRIVER NAND2_284:Z
*CELL GTECH_AND2
*C2_R1_C1 1.216e-01 1.881e-02 1.216e-01 
*LOADS
*RC I_51:A 4.575e-03
*END

*R_NET N63 2.433e-01
*DRIVER NAND2_286:Z
*CELL GTECH_AND2
*C2_R1_C1 1.216e-01 1.881e-02 1.216e-01 
*LOADS
*RC I_52:A 4.575e-03
*END

*R_NET N64 2.433e-01
*DRIVER NAND2_287:Z
*CELL GTECH_AND2
*C2_R1_C1 1.216e-01 1.881e-02 1.216e-01 
*LOADS
*RC I_53:A 4.575e-03
*END

*R_NET N65 2.433e-01
*DRIVER NAND2_299:Z
*CELL GTECH_AND2
*C2_R1_C1 1.216e-01 1.881e-02 1.216e-01 
*LOADS
*RC I_54:A 4.575e-03
*END

*R_NET N66 2.433e-01
*DRIVER NAND2_310:Z
*CELL GTECH_AND2
*C2_R1_C1 1.216e-01 1.881e-02 1.216e-01 
*LOADS
*RC I_55:A 4.575e-03
*END

*R_NET N67 2.433e-01
*DRIVER NAND2_311:Z
*CELL GTECH_AND2
*C2_R1_C1 1.216e-01 1.881e-02 1.216e-01 
*LOADS
*RC I_56:A 4.575e-03
*END

*R_NET N69 2.433e-01
*DRIVER NAND2_322:Z
*CELL GTECH_AND2
*C2_R1_C1 1.216e-01 1.881e-02 1.216e-01 
*LOADS
*RC I_57:A 4.575e-03
*END

*R_NET N70 2.433e-01
*DRIVER NAND2_327:Z
*CELL GTECH_AND2
*C2_R1_C1 1.216e-01 1.881e-02 1.216e-01 
*LOADS
*RC I_58:A 4.575e-03
*END

*R_NET N71 2.433e-01
*DRIVER NAND2_344:Z
*CELL GTECH_AND2
*C2_R1_C1 1.216e-01 1.881e-02 1.216e-01 
*LOADS
*RC I_59:A 4.575e-03
*END

*R_NET N76 2.433e-01
*DRIVER NAND3_117:Z
*CELL GTECH_AND3
*C2_R1_C1 1.216e-01 1.881e-02 1.216e-01 
*LOADS
*RC I_60:A 4.575e-03
*END

*R_NET N77 2.433e-01
*DRIVER NAND3_255:Z
*CELL GTECH_AND3
*C2_R1_C1 1.216e-01 1.881e-02 1.216e-01 
*LOADS
*RC I_61:A 4.575e-03
*END

*R_NET N78 2.433e-01
*DRIVER NAND3_285:Z
*CELL GTECH_AND3
*C2_R1_C1 1.216e-01 1.881e-02 1.216e-01 
*LOADS
*RC I_62:A 4.575e-03
*END

*R_NET N79 2.433e-01
*DRIVER NAND3_288:Z
*CELL GTECH_AND3
*C2_R1_C1 1.216e-01 1.881e-02 1.216e-01 
*LOADS
*RC I_63:A 4.575e-03
*END

*R_NET N81 2.433e-01
*DRIVER NAND3_297:Z
*CELL GTECH_AND3
*C2_R1_C1 1.216e-01 1.881e-02 1.216e-01 
*LOADS
*RC I_64:A 4.575e-03
*END

*R_NET N82 2.433e-01
*DRIVER NAND3_323:Z
*CELL GTECH_AND3
*C2_R1_C1 1.216e-01 1.881e-02 1.216e-01 
*LOADS
*RC I_65:A 4.575e-03
*END

*R_NET N83 2.433e-01
*DRIVER NAND3_326:Z
*CELL GTECH_AND3
*C2_R1_C1 1.216e-01 1.881e-02 1.216e-01 
*LOADS
*RC I_66:A 4.575e-03
*END

*R_NET N84 2.433e-01
*DRIVER NAND3_340:Z
*CELL GTECH_AND3
*C2_R1_C1 1.216e-01 1.881e-02 1.216e-01 
*LOADS
*RC I_67:A 4.575e-03
*END

*R_NET N92 2.433e-01
*DRIVER NAND3_357:Z
*CELL GTECH_AND3
*C2_R1_C1 1.216e-01 1.881e-02 1.216e-01 
*LOADS
*RC I_68:A 4.575e-03
*END

*R_NET N93 2.433e-01
*DRIVER NAND3_370:Z
*CELL GTECH_AND3
*C2_R1_C1 1.216e-01 1.881e-02 1.216e-01 
*LOADS
*RC I_69:A 4.575e-03
*END

*R_NET N94 2.433e-01
*DRIVER NAND3_371:Z
*CELL GTECH_AND3
*C2_R1_C1 1.216e-01 1.881e-02 1.216e-01 
*LOADS
*RC I_70:A 4.575e-03
*END

*R_NET N95 2.433e-01
*DRIVER NAND3_372:Z
*CELL GTECH_AND3
*C2_R1_C1 1.216e-01 1.881e-02 1.216e-01 
*LOADS
*RC I_71:A 4.575e-03
*END

*R_NET N97 2.433e-01
*DRIVER NAND4_1:Z
*CELL GTECH_AND4
*C2_R1_C1 1.216e-01 1.881e-02 1.216e-01 
*LOADS
*RC I_72:A 4.575e-03
*END

*R_NET N98 2.433e-01
*DRIVER NAND4_2:Z
*CELL GTECH_AND4
*C2_R1_C1 1.216e-01 1.881e-02 1.216e-01 
*LOADS
*RC I_73:A 4.575e-03
*END

*R_NET N99 2.433e-01
*DRIVER NAND4_5:Z
*CELL GTECH_AND4
*C2_R1_C1 1.216e-01 1.881e-02 1.216e-01 
*LOADS
*RC I_74:A 4.575e-03
*END

*R_NET N100 2.433e-01
*DRIVER NAND4_6:Z
*CELL GTECH_AND4
*C2_R1_C1 1.216e-01 1.881e-02 1.216e-01 
*LOADS
*RC I_75:A 4.575e-03
*END

*R_NET N102 2.433e-01
*DRIVER NAND4_116:Z
*CELL GTECH_AND4
*C2_R1_C1 1.216e-01 1.881e-02 1.216e-01 
*LOADS
*RC I_76:A 4.575e-03
*END

*R_NET N103 2.433e-01
*DRIVER NAND4_256:Z
*CELL GTECH_AND4
*C2_R1_C1 1.216e-01 1.881e-02 1.216e-01 
*LOADS
*RC I_77:A 4.575e-03
*END

*R_NET N104 2.433e-01
*DRIVER NAND4_295:Z
*CELL GTECH_AND4
*C2_R1_C1 1.216e-01 1.881e-02 1.216e-01 
*LOADS
*RC I_78:A 4.575e-03
*END

*R_NET N105 2.433e-01
*DRIVER NAND4_321:Z
*CELL GTECH_AND4
*C2_R1_C1 1.216e-01 1.881e-02 1.216e-01 
*LOADS
*RC I_79:A 4.575e-03
*END

*R_NET N107 2.433e-01
*DRIVER NAND4_324:Z
*CELL GTECH_AND4
*C2_R1_C1 1.216e-01 1.881e-02 1.216e-01 
*LOADS
*RC I_80:A 4.575e-03
*END

*R_NET N108 2.433e-01
*DRIVER NAND4_325:Z
*CELL GTECH_AND4
*C2_R1_C1 1.216e-01 1.881e-02 1.216e-01 
*LOADS
*RC I_81:A 4.575e-03
*END

*R_NET N109 2.433e-01
*DRIVER NAND4_341:Z
*CELL GTECH_AND4
*C2_R1_C1 1.216e-01 1.881e-02 1.216e-01 
*LOADS
*RC I_82:A 4.575e-03
*END

*R_NET N110 2.433e-01
*DRIVER NAND4_342:Z
*CELL GTECH_AND4
*C2_R1_C1 1.216e-01 1.881e-02 1.216e-01 
*LOADS
*RC I_83:A 4.575e-03
*END

*R_NET N112 2.433e-01
*DRIVER I_84:Z
*CELL GTECH_NOT
*C2_R1_C1 1.216e-01 1.881e-02 1.216e-01 
*LOADS
*RC NOR2_34:A 4.575e-03
*END

*R_NET N113 2.433e-01
*DRIVER I_85:Z
*CELL GTECH_NOT
*C2_R1_C1 1.216e-01 1.881e-02 1.216e-01 
*LOADS
*RC NOR2_34:B 4.575e-03
*END

*R_NET N114 2.433e-01
*DRIVER I_86:Z
*CELL GTECH_NOT
*C2_R1_C1 1.216e-01 1.881e-02 1.216e-01 
*LOADS
*RC NOR2_74:A 4.575e-03
*END

*R_NET N115 2.433e-01
*DRIVER I_87:Z
*CELL GTECH_NOT
*C2_R1_C1 1.216e-01 1.881e-02 1.216e-01 
*LOADS
*RC NOR2_74:B 4.575e-03
*END

*R_NET N117 2.433e-01
*DRIVER I_88:Z
*CELL GTECH_NOT
*C2_R1_C1 1.216e-01 1.881e-02 1.216e-01 
*LOADS
*RC NOR2_126:A 4.575e-03
*END

*R_NET N118 2.433e-01
*DRIVER I_89:Z
*CELL GTECH_NOT
*C2_R1_C1 1.216e-01 1.881e-02 1.216e-01 
*LOADS
*RC NOR2_126:B 4.575e-03
*END

*R_NET N119 2.433e-01
*DRIVER I_90:Z
*CELL GTECH_NOT
*C2_R1_C1 1.216e-01 1.881e-02 1.216e-01 
*LOADS
*RC NOR2_127:A 4.575e-03
*END

*R_NET N120 2.433e-01
*DRIVER I_91:Z
*CELL GTECH_NOT
*C2_R1_C1 1.216e-01 1.881e-02 1.216e-01 
*LOADS
*RC NOR2_127:B 4.575e-03
*END

*R_NET N122 2.433e-01
*DRIVER I_92:Z
*CELL GTECH_NOT
*C2_R1_C1 1.216e-01 1.881e-02 1.216e-01 
*LOADS
*RC NOR2_142:A 4.575e-03
*END

*R_NET N123 2.433e-01
*DRIVER I_93:Z
*CELL GTECH_NOT
*C2_R1_C1 1.216e-01 1.881e-02 1.216e-01 
*LOADS
*RC NOR2_142:B 4.575e-03
*END

*R_NET N124 2.433e-01
*DRIVER I_94:Z
*CELL GTECH_NOT
*C2_R1_C1 1.216e-01 1.881e-02 1.216e-01 
*LOADS
*RC NOR2_143:A 4.575e-03
*END

*R_NET N125 2.433e-01
*DRIVER I_95:Z
*CELL GTECH_NOT
*C2_R1_C1 1.216e-01 1.881e-02 1.216e-01 
*LOADS
*RC NOR2_143:B 4.575e-03
*END

*R_NET N127 2.433e-01
*DRIVER I_96:Z
*CELL GTECH_NOT
*C2_R1_C1 1.216e-01 1.881e-02 1.216e-01 
*LOADS
*RC NOR2_149:A 4.575e-03
*END

*R_NET N128 2.433e-01
*DRIVER I_97:Z
*CELL GTECH_NOT
*C2_R1_C1 1.216e-01 1.881e-02 1.216e-01 
*LOADS
*RC NOR2_149:B 4.575e-03
*END

*R_NET N129 2.433e-01
*DRIVER I_98:Z
*CELL GTECH_NOT
*C2_R1_C1 1.216e-01 1.881e-02 1.216e-01 
*LOADS
*RC NOR2_151:A 4.575e-03
*END

*R_NET N131 2.433e-01
*DRIVER I_99:Z
*CELL GTECH_NOT
*C2_R1_C1 1.216e-01 1.881e-02 1.216e-01 
*LOADS
*RC NOR2_151:B 4.575e-03
*END

*R_NET N132 2.433e-01
*DRIVER I_100:Z
*CELL GTECH_NOT
*C2_R1_C1 1.216e-01 1.881e-02 1.216e-01 
*LOADS
*RC NOR2_153:A 4.575e-03
*END

*R_NET N133 2.433e-01
*DRIVER I_101:Z
*CELL GTECH_NOT
*C2_R1_C1 1.216e-01 1.881e-02 1.216e-01 
*LOADS
*RC NOR2_153:B 4.575e-03
*END

*R_NET N134 2.433e-01
*DRIVER I_102:Z
*CELL GTECH_NOT
*C2_R1_C1 1.216e-01 1.881e-02 1.216e-01 
*LOADS
*RC NOR2_155:A 4.575e-03
*END

*R_NET N136 2.433e-01
*DRIVER I_103:Z
*CELL GTECH_NOT
*C2_R1_C1 1.216e-01 1.881e-02 1.216e-01 
*LOADS
*RC NOR2_155:B 4.575e-03
*END

*R_NET N137 2.433e-01
*DRIVER I_104:Z
*CELL GTECH_NOT
*C2_R1_C1 1.216e-01 1.881e-02 1.216e-01 
*LOADS
*RC NOR2_178:A 4.575e-03
*END

*R_NET N139 2.433e-01
*DRIVER I_105:Z
*CELL GTECH_NOT
*C2_R1_C1 1.216e-01 1.881e-02 1.216e-01 
*LOADS
*RC NOR2_178:B 4.575e-03
*END

*R_NET N140 2.433e-01
*DRIVER I_106:Z
*CELL GTECH_NOT
*C2_R1_C1 1.216e-01 1.881e-02 1.216e-01 
*LOADS
*RC NOR2_179:A 4.575e-03
*END

*R_NET N141 2.433e-01
*DRIVER I_107:Z
*CELL GTECH_NOT
*C2_R1_C1 1.216e-01 1.881e-02 1.216e-01 
*LOADS
*RC NOR2_179:B 4.575e-03
*END

*R_NET N142 2.433e-01
*DRIVER I_108:Z
*CELL GTECH_NOT
*C2_R1_C1 1.216e-01 1.881e-02 1.216e-01 
*LOADS
*RC NOR2_180:A 4.575e-03
*END

*R_NET N144 2.433e-01
*DRIVER I_109:Z
*CELL GTECH_NOT
*C2_R1_C1 1.216e-01 1.881e-02 1.216e-01 
*LOADS
*RC NOR2_180:B 4.575e-03
*END

*R_NET N145 2.433e-01
*DRIVER I_110:Z
*CELL GTECH_NOT
*C2_R1_C1 1.216e-01 1.881e-02 1.216e-01 
*LOADS
*RC NOR2_181:A 4.575e-03
*END

*R_NET N147 2.433e-01
*DRIVER I_111:Z
*CELL GTECH_NOT
*C2_R1_C1 1.216e-01 1.881e-02 1.216e-01 
*LOADS
*RC NOR2_181:B 4.575e-03
*END

*R_NET N148 2.433e-01
*DRIVER I_112:Z
*CELL GTECH_NOT
*C2_R1_C1 1.216e-01 1.881e-02 1.216e-01 
*LOADS
*RC NOR2_182:A 4.575e-03
*END

*R_NET N150 2.433e-01
*DRIVER I_113:Z
*CELL GTECH_NOT
*C2_R1_C1 1.216e-01 1.881e-02 1.216e-01 
*LOADS
*RC NOR2_182:B 4.575e-03
*END

*R_NET N151 2.433e-01
*DRIVER I_114:Z
*CELL GTECH_NOT
*C2_R1_C1 1.216e-01 1.881e-02 1.216e-01 
*LOADS
*RC NOR2_183:A 4.575e-03
*END

*R_NET N154 2.433e-01
*DRIVER I_115:Z
*CELL GTECH_NOT
*C2_R1_C1 1.216e-01 1.881e-02 1.216e-01 
*LOADS
*RC NOR2_183:B 4.575e-03
*END

*R_NET N155 2.433e-01
*DRIVER I_116:Z
*CELL GTECH_NOT
*C2_R1_C1 1.216e-01 1.881e-02 1.216e-01 
*LOADS
*RC NOR2_184:A 4.575e-03
*END

*R_NET N157 2.433e-01
*DRIVER I_117:Z
*CELL GTECH_NOT
*C2_R1_C1 1.216e-01 1.881e-02 1.216e-01 
*LOADS
*RC NOR2_184:B 4.575e-03
*END

*R_NET N158 2.433e-01
*DRIVER I_118:Z
*CELL GTECH_NOT
*C2_R1_C1 1.216e-01 1.881e-02 1.216e-01 
*LOADS
*RC NOR2_185:A 4.575e-03
*END

*R_NET N160 2.433e-01
*DRIVER I_119:Z
*CELL GTECH_NOT
*C2_R1_C1 1.216e-01 1.881e-02 1.216e-01 
*LOADS
*RC NOR2_185:B 4.575e-03
*END

*R_NET N161 2.433e-01
*DRIVER I_120:Z
*CELL GTECH_NOT
*C2_R1_C1 1.216e-01 1.881e-02 1.216e-01 
*LOADS
*RC NOR2_228:A 4.575e-03
*END

*R_NET N162 2.433e-01
*DRIVER I_121:Z
*CELL GTECH_NOT
*C2_R1_C1 1.216e-01 1.881e-02 1.216e-01 
*LOADS
*RC NOR2_228:B 4.575e-03
*END

*R_NET N163 2.433e-01
*DRIVER I_122:Z
*CELL GTECH_NOT
*C2_R1_C1 1.216e-01 1.881e-02 1.216e-01 
*LOADS
*RC NOR2_229:A 4.575e-03
*END

*R_NET N164 2.433e-01
*DRIVER I_123:Z
*CELL GTECH_NOT
*C2_R1_C1 1.216e-01 1.881e-02 1.216e-01 
*LOADS
*RC NOR2_229:B 4.575e-03
*END

*R_NET N166 2.433e-01
*DRIVER I_124:Z
*CELL GTECH_NOT
*C2_R1_C1 1.216e-01 1.881e-02 1.216e-01 
*LOADS
*RC NOR2_232:A 4.575e-03
*END

*R_NET N167 2.433e-01
*DRIVER I_125:Z
*CELL GTECH_NOT
*C2_R1_C1 1.216e-01 1.881e-02 1.216e-01 
*LOADS
*RC NOR2_232:B 4.575e-03
*END

*R_NET N168 2.433e-01
*DRIVER I_126:Z
*CELL GTECH_NOT
*C2_R1_C1 1.216e-01 1.881e-02 1.216e-01 
*LOADS
*RC NOR2_235:A 4.575e-03
*END

*R_NET N169 2.433e-01
*DRIVER I_127:Z
*CELL GTECH_NOT
*C2_R1_C1 1.216e-01 1.881e-02 1.216e-01 
*LOADS
*RC NOR2_235:B 4.575e-03
*END

*R_NET N170 2.433e-01
*DRIVER I_128:Z
*CELL GTECH_NOT
*C2_R1_C1 1.216e-01 1.881e-02 1.216e-01 
*LOADS
*RC NOR2_238:A 4.575e-03
*END

*R_NET N172 2.433e-01
*DRIVER I_129:Z
*CELL GTECH_NOT
*C2_R1_C1 1.216e-01 1.881e-02 1.216e-01 
*LOADS
*RC NOR2_238:B 4.575e-03
*END

*R_NET N173 2.433e-01
*DRIVER I_130:Z
*CELL GTECH_NOT
*C2_R1_C1 1.216e-01 1.881e-02 1.216e-01 
*LOADS
*RC NOR2_241:A 4.575e-03
*END

*R_NET N174 2.433e-01
*DRIVER I_131:Z
*CELL GTECH_NOT
*C2_R1_C1 1.216e-01 1.881e-02 1.216e-01 
*LOADS
*RC NOR2_241:B 4.575e-03
*END

*R_NET N175 2.433e-01
*DRIVER I_132:Z
*CELL GTECH_NOT
*C2_R1_C1 1.216e-01 1.881e-02 1.216e-01 
*LOADS
*RC NOR2_244:A 4.575e-03
*END

*R_NET N176 2.433e-01
*DRIVER I_133:Z
*CELL GTECH_NOT
*C2_R1_C1 1.216e-01 1.881e-02 1.216e-01 
*LOADS
*RC NOR2_244:B 4.575e-03
*END

*R_NET N178 2.433e-01
*DRIVER I_134:Z
*CELL GTECH_NOT
*C2_R1_C1 1.216e-01 1.881e-02 1.216e-01 
*LOADS
*RC NOR2_247:A 4.575e-03
*END

*R_NET N179 2.433e-01
*DRIVER I_135:Z
*CELL GTECH_NOT
*C2_R1_C1 1.216e-01 1.881e-02 1.216e-01 
*LOADS
*RC NOR2_247:B 4.575e-03
*END

*R_NET N180 2.433e-01
*DRIVER I_136:Z
*CELL GTECH_NOT
*C2_R1_C1 1.216e-01 1.881e-02 1.216e-01 
*LOADS
*RC NOR2_250:A 4.575e-03
*END

*R_NET N181 2.433e-01
*DRIVER I_137:Z
*CELL GTECH_NOT
*C2_R1_C1 1.216e-01 1.881e-02 1.216e-01 
*LOADS
*RC NOR2_250:B 4.575e-03
*END

*R_NET N182 2.433e-01
*DRIVER I_138:Z
*CELL GTECH_NOT
*C2_R1_C1 1.216e-01 1.881e-02 1.216e-01 
*LOADS
*RC NOR2_253:A 4.575e-03
*END

*R_NET N184 2.433e-01
*DRIVER I_139:Z
*CELL GTECH_NOT
*C2_R1_C1 1.216e-01 1.881e-02 1.216e-01 
*LOADS
*RC NOR2_253:B 4.575e-03
*END

*R_NET N185 2.433e-01
*DRIVER I_140:Z
*CELL GTECH_NOT
*C2_R1_C1 1.216e-01 1.881e-02 1.216e-01 
*LOADS
*RC NOR2_279:A 4.575e-03
*END

*R_NET N186 2.433e-01
*DRIVER I_141:Z
*CELL GTECH_NOT
*C2_R1_C1 1.216e-01 1.881e-02 1.216e-01 
*LOADS
*RC NOR2_279:B 4.575e-03
*END

*R_NET N187 2.433e-01
*DRIVER I_142:Z
*CELL GTECH_NOT
*C2_R1_C1 1.216e-01 1.881e-02 1.216e-01 
*LOADS
*RC NOR2_291:A 4.575e-03
*END

*R_NET N188 2.433e-01
*DRIVER I_143:Z
*CELL GTECH_NOT
*C2_R1_C1 1.216e-01 1.881e-02 1.216e-01 
*LOADS
*RC NOR2_291:B 4.575e-03
*END

*R_NET N190 2.433e-01
*DRIVER I_144:Z
*CELL GTECH_NOT
*C2_R1_C1 1.216e-01 1.881e-02 1.216e-01 
*LOADS
*RC NOR2_292:A 4.575e-03
*END

*R_NET N191 2.433e-01
*DRIVER I_145:Z
*CELL GTECH_NOT
*C2_R1_C1 1.216e-01 1.881e-02 1.216e-01 
*LOADS
*RC NOR2_292:B 4.575e-03
*END

*R_NET N192 2.433e-01
*DRIVER I_146:Z
*CELL GTECH_NOT
*C2_R1_C1 1.216e-01 1.881e-02 1.216e-01 
*LOADS
*RC NOR2_293:A 4.575e-03
*END

*R_NET N193 2.433e-01
*DRIVER I_147:Z
*CELL GTECH_NOT
*C2_R1_C1 1.216e-01 1.881e-02 1.216e-01 
*LOADS
*RC NOR2_293:B 4.575e-03
*END

*R_NET N194 2.433e-01
*DRIVER I_148:Z
*CELL GTECH_NOT
*C2_R1_C1 1.216e-01 1.881e-02 1.216e-01 
*LOADS
*RC NOR2_294:A 4.575e-03
*END

*R_NET N196 2.433e-01
*DRIVER I_149:Z
*CELL GTECH_NOT
*C2_R1_C1 1.216e-01 1.881e-02 1.216e-01 
*LOADS
*RC NOR2_294:B 4.575e-03
*END

*R_NET N197 2.433e-01
*DRIVER I_150:Z
*CELL GTECH_NOT
*C2_R1_C1 1.216e-01 1.881e-02 1.216e-01 
*LOADS
*RC NOR2_296:A 4.575e-03
*END

*R_NET N198 2.433e-01
*DRIVER I_151:Z
*CELL GTECH_NOT
*C2_R1_C1 1.216e-01 1.881e-02 1.216e-01 
*LOADS
*RC NOR2_296:B 4.575e-03
*END

*R_NET N199 2.433e-01
*DRIVER I_152:Z
*CELL GTECH_NOT
*C2_R1_C1 1.216e-01 1.881e-02 1.216e-01 
*LOADS
*RC NOR2_298:A 4.575e-03
*END

*R_NET N200 2.433e-01
*DRIVER I_153:Z
*CELL GTECH_NOT
*C2_R1_C1 1.216e-01 1.881e-02 1.216e-01 
*LOADS
*RC NOR2_298:B 4.575e-03
*END

*R_NET N202 2.433e-01
*DRIVER I_154:Z
*CELL GTECH_NOT
*C2_R1_C1 1.216e-01 1.881e-02 1.216e-01 
*LOADS
*RC NOR2_300:A 4.575e-03
*END

*R_NET N203 2.433e-01
*DRIVER I_155:Z
*CELL GTECH_NOT
*C2_R1_C1 1.216e-01 1.881e-02 1.216e-01 
*LOADS
*RC NOR2_300:B 4.575e-03
*END

*R_NET N204 2.433e-01
*DRIVER I_156:Z
*CELL GTECH_NOT
*C2_R1_C1 1.216e-01 1.881e-02 1.216e-01 
*LOADS
*RC NOR2_301:A 4.575e-03
*END

*R_NET N205 2.433e-01
*DRIVER I_157:Z
*CELL GTECH_NOT
*C2_R1_C1 1.216e-01 1.881e-02 1.216e-01 
*LOADS
*RC NOR2_301:B 4.575e-03
*END

*R_NET N206 2.433e-01
*DRIVER I_158:Z
*CELL GTECH_NOT
*C2_R1_C1 1.216e-01 1.881e-02 1.216e-01 
*LOADS
*RC NOR2_302:A 4.575e-03
*END

*R_NET N208 2.433e-01
*DRIVER I_159:Z
*CELL GTECH_NOT
*C2_R1_C1 1.216e-01 1.881e-02 1.216e-01 
*LOADS
*RC NOR2_302:B 4.575e-03
*END

*R_NET N209 2.433e-01
*DRIVER I_160:Z
*CELL GTECH_NOT
*C2_R1_C1 1.216e-01 1.881e-02 1.216e-01 
*LOADS
*RC NOR2_303:A 4.575e-03
*END

*R_NET N211 2.433e-01
*DRIVER I_161:Z
*CELL GTECH_NOT
*C2_R1_C1 1.216e-01 1.881e-02 1.216e-01 
*LOADS
*RC NOR2_303:B 4.575e-03
*END

*R_NET N212 2.433e-01
*DRIVER I_162:Z
*CELL GTECH_NOT
*C2_R1_C1 1.216e-01 1.881e-02 1.216e-01 
*LOADS
*RC NOR2_305:A 4.575e-03
*END

*R_NET N213 2.433e-01
*DRIVER I_163:Z
*CELL GTECH_NOT
*C2_R1_C1 1.216e-01 1.881e-02 1.216e-01 
*LOADS
*RC NOR2_305:B 4.575e-03
*END

*R_NET N214 2.433e-01
*DRIVER I_164:Z
*CELL GTECH_NOT
*C2_R1_C1 1.216e-01 1.881e-02 1.216e-01 
*LOADS
*RC NOR2_307:A 4.575e-03
*END

*R_NET N215 2.433e-01
*DRIVER I_165:Z
*CELL GTECH_NOT
*C2_R1_C1 1.216e-01 1.881e-02 1.216e-01 
*LOADS
*RC NOR2_307:B 4.575e-03
*END

*R_NET N216 2.433e-01
*DRIVER I_166:Z
*CELL GTECH_NOT
*C2_R1_C1 1.216e-01 1.881e-02 1.216e-01 
*LOADS
*RC NOR2_312:A 4.575e-03
*END

*R_NET N217 2.433e-01
*DRIVER I_167:Z
*CELL GTECH_NOT
*C2_R1_C1 1.216e-01 1.881e-02 1.216e-01 
*LOADS
*RC NOR2_312:B 4.575e-03
*END

*R_NET N218 2.433e-01
*DRIVER I_168:Z
*CELL GTECH_NOT
*C2_R1_C1 1.216e-01 1.881e-02 1.216e-01 
*LOADS
*RC NOR2_313:A 4.575e-03
*END

*R_NET N220 2.433e-01
*DRIVER I_169:Z
*CELL GTECH_NOT
*C2_R1_C1 1.216e-01 1.881e-02 1.216e-01 
*LOADS
*RC NOR2_313:B 4.575e-03
*END

*R_NET N221 2.433e-01
*DRIVER I_170:Z
*CELL GTECH_NOT
*C2_R1_C1 1.216e-01 1.881e-02 1.216e-01 
*LOADS
*RC NOR2_314:A 4.575e-03
*END

*R_NET N222 2.433e-01
*DRIVER I_171:Z
*CELL GTECH_NOT
*C2_R1_C1 1.216e-01 1.881e-02 1.216e-01 
*LOADS
*RC NOR2_314:B 4.575e-03
*END

*R_NET N223 2.433e-01
*DRIVER I_172:Z
*CELL GTECH_NOT
*C2_R1_C1 1.216e-01 1.881e-02 1.216e-01 
*LOADS
*RC NOR2_315:A 4.575e-03
*END

*R_NET N224 2.433e-01
*DRIVER I_173:Z
*CELL GTECH_NOT
*C2_R1_C1 1.216e-01 1.881e-02 1.216e-01 
*LOADS
*RC NOR2_315:B 4.575e-03
*END

*R_NET N225 2.433e-01
*DRIVER I_174:Z
*CELL GTECH_NOT
*C2_R1_C1 1.216e-01 1.881e-02 1.216e-01 
*LOADS
*RC NOR2_316:A 4.575e-03
*END

*R_NET N226 2.433e-01
*DRIVER I_175:Z
*CELL GTECH_NOT
*C2_R1_C1 1.216e-01 1.881e-02 1.216e-01 
*LOADS
*RC NOR2_316:B 4.575e-03
*END

*R_NET N227 2.433e-01
*DRIVER I_176:Z
*CELL GTECH_NOT
*C2_R1_C1 1.216e-01 1.881e-02 1.216e-01 
*LOADS
*RC NOR2_328:A 4.575e-03
*END

*R_NET N229 2.433e-01
*DRIVER I_177:Z
*CELL GTECH_NOT
*C2_R1_C1 1.216e-01 1.881e-02 1.216e-01 
*LOADS
*RC NOR2_328:B 4.575e-03
*END

*R_NET N230 2.433e-01
*DRIVER I_178:Z
*CELL GTECH_NOT
*C2_R1_C1 1.216e-01 1.881e-02 1.216e-01 
*LOADS
*RC NOR2_329:A 4.575e-03
*END

*R_NET N231 2.433e-01
*DRIVER I_179:Z
*CELL GTECH_NOT
*C2_R1_C1 1.216e-01 1.881e-02 1.216e-01 
*LOADS
*RC NOR2_329:B 4.575e-03
*END

*R_NET N232 2.433e-01
*DRIVER I_180:Z
*CELL GTECH_NOT
*C2_R1_C1 1.216e-01 1.881e-02 1.216e-01 
*LOADS
*RC NOR2_330:A 4.575e-03
*END

*R_NET N233 2.433e-01
*DRIVER I_181:Z
*CELL GTECH_NOT
*C2_R1_C1 1.216e-01 1.881e-02 1.216e-01 
*LOADS
*RC NOR2_330:B 4.575e-03
*END

*R_NET N234 2.433e-01
*DRIVER I_182:Z
*CELL GTECH_NOT
*C2_R1_C1 1.216e-01 1.881e-02 1.216e-01 
*LOADS
*RC NOR2_331:A 4.575e-03
*END

*R_NET N235 2.433e-01
*DRIVER I_183:Z
*CELL GTECH_NOT
*C2_R1_C1 1.216e-01 1.881e-02 1.216e-01 
*LOADS
*RC NOR2_331:B 4.575e-03
*END

*R_NET N236 2.433e-01
*DRIVER I_184:Z
*CELL GTECH_NOT
*C2_R1_C1 1.216e-01 1.881e-02 1.216e-01 
*LOADS
*RC NOR2_333:A 4.575e-03
*END

*R_NET N238 2.433e-01
*DRIVER I_185:Z
*CELL GTECH_NOT
*C2_R1_C1 1.216e-01 1.881e-02 1.216e-01 
*LOADS
*RC NOR2_333:B 4.575e-03
*END

*R_NET N239 2.433e-01
*DRIVER I_186:Z
*CELL GTECH_NOT
*C2_R1_C1 1.216e-01 1.881e-02 1.216e-01 
*LOADS
*RC NOR2_335:A 4.575e-03
*END

*R_NET N240 2.433e-01
*DRIVER I_187:Z
*CELL GTECH_NOT
*C2_R1_C1 1.216e-01 1.881e-02 1.216e-01 
*LOADS
*RC NOR2_335:B 4.575e-03
*END

*R_NET N241 2.433e-01
*DRIVER I_188:Z
*CELL GTECH_NOT
*C2_R1_C1 1.216e-01 1.881e-02 1.216e-01 
*LOADS
*RC NOR2_337:A 4.575e-03
*END

*R_NET N242 2.433e-01
*DRIVER I_189:Z
*CELL GTECH_NOT
*C2_R1_C1 1.216e-01 1.881e-02 1.216e-01 
*LOADS
*RC NOR2_337:B 4.575e-03
*END

*R_NET N243 2.433e-01
*DRIVER I_190:Z
*CELL GTECH_NOT
*C2_R1_C1 1.216e-01 1.881e-02 1.216e-01 
*LOADS
*RC NOR2_345:A 4.575e-03
*END

*R_NET N244 2.433e-01
*DRIVER I_191:Z
*CELL GTECH_NOT
*C2_R1_C1 1.216e-01 1.881e-02 1.216e-01 
*LOADS
*RC NOR2_345:B 4.575e-03
*END

*R_NET N245 2.433e-01
*DRIVER I_192:Z
*CELL GTECH_NOT
*C2_R1_C1 1.216e-01 1.881e-02 1.216e-01 
*LOADS
*RC NOR2_346:A 4.575e-03
*END

*R_NET N247 2.433e-01
*DRIVER I_193:Z
*CELL GTECH_NOT
*C2_R1_C1 1.216e-01 1.881e-02 1.216e-01 
*LOADS
*RC NOR2_346:B 4.575e-03
*END

*R_NET N248 2.433e-01
*DRIVER I_194:Z
*CELL GTECH_NOT
*C2_R1_C1 1.216e-01 1.881e-02 1.216e-01 
*LOADS
*RC NOR2_347:A 4.575e-03
*END

*R_NET N249 2.433e-01
*DRIVER I_195:Z
*CELL GTECH_NOT