*SPEF "IEEE 1481-1999"
*DESIGN "s641"
*DATE "Sun Oct 16 23:50:04 2022"
*VENDOR "SYNOPSYS INC"
*PROGRAM "Synopsys Design Compiler"
*VERSION "S-2021.06-SP5-3"
*DESIGN_FLOW "SYNTHESIS"
*DIVIDER /
*DELIMITER :
*BUS_DELIMITER []
*T_UNIT 1.0 NS
*C_UNIT 0.0010 PF
*R_UNIT 1000.0 KOHM
*L_UNIT 1.0 HENRY

*PORTS

CK I *L 0.000e+00 *S 0.000e+00 0.000e+00 
G1 I *L 0.000e+00 *S 0.000e+00 0.000e+00 
G10 I *L 0.000e+00 *S 0.000e+00 0.000e+00 
G100BF O *L 0.000e+00 *S 0.000e+00 0.000e+00 
G101BF O *L 0.000e+00 *S 0.000e+00 0.000e+00 
G103BF O *L 0.000e+00 *S 0.000e+00 0.000e+00 
G104BF O *L 0.000e+00 *S 0.000e+00 0.000e+00 
G105BF O *L 0.000e+00 *S 0.000e+00 0.000e+00 
G106BF O *L 0.000e+00 *S 0.000e+00 0.000e+00 
G107 O *L 0.000e+00 *S 0.000e+00 0.000e+00 
G11 I *L 0.000e+00 *S 0.000e+00 0.000e+00 
G12 I *L 0.000e+00 *S 0.000e+00 0.000e+00 
G13 I *L 0.000e+00 *S 0.000e+00 0.000e+00 
G138 O *L 0.000e+00 *S 0.000e+00 0.000e+00 
G14 I *L 0.000e+00 *S 0.000e+00 0.000e+00 
G15 I *L 0.000e+00 *S 0.000e+00 0.000e+00 
G16 I *L 0.000e+00 *S 0.000e+00 0.000e+00 
G17 I *L 0.000e+00 *S 0.000e+00 0.000e+00 
G18 I *L 0.000e+00 *S 0.000e+00 0.000e+00 
G19 I *L 0.000e+00 *S 0.000e+00 0.000e+00 
G2 I *L 0.000e+00 *S 0.000e+00 0.000e+00 
G20 I *L 0.000e+00 *S 0.000e+00 0.000e+00 
G21 I *L 0.000e+00 *S 0.000e+00 0.000e+00 
G22 I *L 0.000e+00 *S 0.000e+00 0.000e+00 
G23 I *L 0.000e+00 *S 0.000e+00 0.000e+00 
G24 I *L 0.000e+00 *S 0.000e+00 0.000e+00 
G25 I *L 0.000e+00 *S 0.000e+00 0.000e+00 
G26 I *L 0.000e+00 *S 0.000e+00 0.000e+00 
G27 I *L 0.000e+00 *S 0.000e+00 0.000e+00 
G28 I *L 0.000e+00 *S 0.000e+00 0.000e+00 
G29 I *L 0.000e+00 *S 0.000e+00 0.000e+00 
G3 I *L 0.000e+00 *S 0.000e+00 0.000e+00 
G30 I *L 0.000e+00 *S 0.000e+00 0.000e+00 
G31 I *L 0.000e+00 *S 0.000e+00 0.000e+00 
G32 I *L 0.000e+00 *S 0.000e+00 0.000e+00 
G33 I *L 0.000e+00 *S 0.000e+00 0.000e+00 
G34 I *L 0.000e+00 *S 0.000e+00 0.000e+00 
G35 I *L 0.000e+00 *S 0.000e+00 0.000e+00 
G36 I *L 0.000e+00 *S 0.000e+00 0.000e+00 
G4 I *L 0.000e+00 *S 0.000e+00 0.000e+00 
G5 I *L 0.000e+00 *S 0.000e+00 0.000e+00 
G6 I *L 0.000e+00 *S 0.000e+00 0.000e+00 
G8 I *L 0.000e+00 *S 0.000e+00 0.000e+00 
G83 O *L 0.000e+00 *S 0.000e+00 0.000e+00 
G84 O *L 0.000e+00 *S 0.000e+00 0.000e+00 
G85 O *L 0.000e+00 *S 0.000e+00 0.000e+00 
G86BF O *L 0.000e+00 *S 0.000e+00 0.000e+00 
G87BF O *L 0.000e+00 *S 0.000e+00 0.000e+00 
G88BF O *L 0.000e+00 *S 0.000e+00 0.000e+00 
G89BF O *L 0.000e+00 *S 0.000e+00 0.000e+00 
G9 I *L 0.000e+00 *S 0.000e+00 0.000e+00 
G90 O *L 0.000e+00 *S 0.000e+00 0.000e+00 
G91 O *L 0.000e+00 *S 0.000e+00 0.000e+00 
G92 O *L 0.000e+00 *S 0.000e+00 0.000e+00 
G94 O *L 0.000e+00 *S 0.000e+00 0.000e+00 
G95BF O *L 0.000e+00 *S 0.000e+00 0.000e+00 
G96BF O *L 0.000e+00 *S 0.000e+00 0.000e+00 
G97BF O *L 0.000e+00 *S 0.000e+00 0.000e+00 
G98BF O *L 0.000e+00 *S 0.000e+00 0.000e+00 
G99BF O *L 0.000e+00 *S 0.000e+00 0.000e+00 

*R_NET N0 2.433e-01
*DRIVER NAND2_0:Z
*CELL GTECH_AND2
*C2_R1_C1 1.216e-01 1.881e-02 1.216e-01 
*LOADS
*RC I_68:A 4.575e-03
*END

*R_NET N1 2.433e-01
*DRIVER NAND2_1:Z
*CELL GTECH_AND2
*C2_R1_C1 1.216e-01 1.881e-02 1.216e-01 
*LOADS
*RC I_69:A 4.575e-03
*END

*R_NET N2 2.433e-01
*DRIVER NAND2_2:Z
*CELL GTECH_AND2
*C2_R1_C1 1.216e-01 1.881e-02 1.216e-01 
*LOADS
*RC I_70:A 4.575e-03
*END

*R_NET N3 2.433e-01
*DRIVER NAND2_3:Z
*CELL GTECH_AND2
*C2_R1_C1 1.216e-01 1.881e-02 1.216e-01 
*LOADS
*RC I_71:A 4.575e-03
*END

*R_NET CK 9.876e+00
*DRIVER DFF_18/Q_reg:clocked_on
*CELL \*\*SEQGEN\*\*
*C2_R1_C1 4.938e+00 7.637e-01 4.938e+00 
*LOADS
*RC DFF_17/Q_reg:clocked_on 7.543e+00
*RC DFF_16/Q_reg:clocked_on 7.543e+00
*RC DFF_15/Q_reg:clocked_on 7.543e+00
*RC DFF_14/Q_reg:clocked_on 7.543e+00
*RC DFF_13/Q_reg:clocked_on 7.543e+00
*RC DFF_12/Q_reg:clocked_on 7.543e+00
*RC DFF_11/Q_reg:clocked_on 7.543e+00
*RC DFF_10/Q_reg:clocked_on 7.543e+00
*RC DFF_9/Q_reg:clocked_on 7.543e+00
*RC DFF_8/Q_reg:clocked_on 7.543e+00
*RC DFF_7/Q_reg:clocked_on 7.543e+00
*RC DFF_6/Q_reg:clocked_on 7.543e+00
*RC DFF_5/Q_reg:clocked_on 7.543e+00
*RC DFF_4/Q_reg:clocked_on 7.543e+00
*RC DFF_3/Q_reg:clocked_on 7.543e+00
*RC DFF_2/Q_reg:clocked_on 7.543e+00
*RC DFF_1/Q_reg:clocked_on 7.543e+00
*RC DFF_0/Q_reg:clocked_on 7.543e+00
*DRIVER DFF_17/Q_reg:clocked_on
*CELL \*\*SEQGEN\*\*
*C2_R1_C1 4.938e+00 7.637e-01 4.938e+00 
*LOADS
*RC DFF_18/Q_reg:clocked_on 7.543e+00
*RC DFF_16/Q_reg:clocked_on 7.543e+00
*RC DFF_15/Q_reg:clocked_on 7.543e+00
*RC DFF_14/Q_reg:clocked_on 7.543e+00
*RC DFF_13/Q_reg:clocked_on 7.543e+00
*RC DFF_12/Q_reg:clocked_on 7.543e+00
*RC DFF_11/Q_reg:clocked_on 7.543e+00
*RC DFF_10/Q_reg:clocked_on 7.543e+00
*RC DFF_9/Q_reg:clocked_on 7.543e+00
*RC DFF_8/Q_reg:clocked_on 7.543e+00
*RC DFF_7/Q_reg:clocked_on 7.543e+00
*RC DFF_6/Q_reg:clocked_on 7.543e+00
*RC DFF_5/Q_reg:clocked_on 7.543e+00
*RC DFF_4/Q_reg:clocked_on 7.543e+00
*RC DFF_3/Q_reg:clocked_on 7.543e+00
*RC DFF_2/Q_reg:clocked_on 7.543e+00
*RC DFF_1/Q_reg:clocked_on 7.543e+00
*RC DFF_0/Q_reg:clocked_on 7.543e+00
*DRIVER DFF_16/Q_reg:clocked_on
*CELL \*\*SEQGEN\*\*
*C2_R1_C1 4.938e+00 7.637e-01 4.938e+00 
*LOADS
*RC DFF_18/Q_reg:clocked_on 7.543e+00
*RC DFF_17/Q_reg:clocked_on 7.543e+00
*RC DFF_15/Q_reg:clocked_on 7.543e+00
*RC DFF_14/Q_reg:clocked_on 7.543e+00
*RC DFF_13/Q_reg:clocked_on 7.543e+00
*RC DFF_12/Q_reg:clocked_on 7.543e+00
*RC DFF_11/Q_reg:clocked_on 7.543e+00
*RC DFF_10/Q_reg:clocked_on 7.543e+00
*RC DFF_9/Q_reg:clocked_on 7.543e+00
*RC DFF_8/Q_reg:clocked_on 7.543e+00
*RC DFF_7/Q_reg:clocked_on 7.543e+00
*RC DFF_6/Q_reg:clocked_on 7.543e+00
*RC DFF_5/Q_reg:clocked_on 7.543e+00
*RC DFF_4/Q_reg:clocked_on 7.543e+00
*RC DFF_3/Q_reg:clocked_on 7.543e+00
*RC DFF_2/Q_reg:clocked_on 7.543e+00
*RC DFF_1/Q_reg:clocked_on 7.543e+00
*RC DFF_0/Q_reg:clocked_on 7.543e+00
*DRIVER DFF_15/Q_reg:clocked_on
*CELL \*\*SEQGEN\*\*
*C2_R1_C1 4.938e+00 7.637e-01 4.938e+00 
*LOADS
*RC DFF_18/Q_reg:clocked_on 7.543e+00
*RC DFF_17/Q_reg:clocked_on 7.543e+00
*RC DFF_16/Q_reg:clocked_on 7.543e+00
*RC DFF_14/Q_reg:clocked_on 7.543e+00
*RC DFF_13/Q_reg:clocked_on 7.543e+00
*RC DFF_12/Q_reg:clocked_on 7.543e+00
*RC DFF_11/Q_reg:clocked_on 7.543e+00
*RC DFF_10/Q_reg:clocked_on 7.543e+00
*RC DFF_9/Q_reg:clocked_on 7.543e+00
*RC DFF_8/Q_reg:clocked_on 7.543e+00
*RC DFF_7/Q_reg:clocked_on 7.543e+00
*RC DFF_6/Q_reg:clocked_on 7.543e+00
*RC DFF_5/Q_reg:clocked_on 7.543e+00
*RC DFF_4/Q_reg:clocked_on 7.543e+00
*RC DFF_3/Q_reg:clocked_on 7.543e+00
*RC DFF_2/Q_reg:clocked_on 7.543e+00
*RC DFF_1/Q_reg:clocked_on 7.543e+00
*RC DFF_0/Q_reg:clocked_on 7.543e+00
*DRIVER DFF_14/Q_reg:clocked_on
*CELL \*\*SEQGEN\*\*
*C2_R1_C1 4.938e+00 7.637e-01 4.938e+00 
*LOADS
*RC DFF_18/Q_reg:clocked_on 7.543e+00
*RC DFF_17/Q_reg:clocked_on 7.543e+00
*RC DFF_16/Q_reg:clocked_on 7.543e+00
*RC DFF_15/Q_reg:clocked_on 7.543e+00
*RC DFF_13/Q_reg:clocked_on 7.543e+00
*RC DFF_12/Q_reg:clocked_on 7.543e+00
*RC DFF_11/Q_reg:clocked_on 7.543e+00
*RC DFF_10/Q_reg:clocked_on 7.543e+00
*RC DFF_9/Q_reg:clocked_on 7.543e+00
*RC DFF_8/Q_reg:clocked_on 7.543e+00
*RC DFF_7/Q_reg:clocked_on 7.543e+00
*RC DFF_6/Q_reg:clocked_on 7.543e+00
*RC DFF_5/Q_reg:clocked_on 7.543e+00
*RC DFF_4/Q_reg:clocked_on 7.543e+00
*RC DFF_3/Q_reg:clocked_on 7.543e+00
*RC DFF_2/Q_reg:clocked_on 7.543e+00
*RC DFF_1/Q_reg:clocked_on 7.543e+00
*RC DFF_0/Q_reg:clocked_on 7.543e+00
*DRIVER DFF_13/Q_reg:clocked_on
*CELL \*\*SEQGEN\*\*
*C2_R1_C1 4.938e+00 7.637e-01 4.938e+00 
*LOADS
*RC DFF_18/Q_reg:clocked_on 7.543e+00
*RC DFF_17/Q_reg:clocked_on 7.543e+00
*RC DFF_16/Q_reg:clocked_on 7.543e+00
*RC DFF_15/Q_reg:clocked_on 7.543e+00
*RC DFF_14/Q_reg:clocked_on 7.543e+00
*RC DFF_12/Q_reg:clocked_on 7.543e+00
*RC DFF_11/Q_reg:clocked_on 7.543e+00
*RC DFF_10/Q_reg:clocked_on 7.543e+00
*RC DFF_9/Q_reg:clocked_on 7.543e+00
*RC DFF_8/Q_reg:clocked_on 7.543e+00
*RC DFF_7/Q_reg:clocked_on 7.543e+00
*RC DFF_6/Q_reg:clocked_on 7.543e+00
*RC DFF_5/Q_reg:clocked_on 7.543e+00
*RC DFF_4/Q_reg:clocked_on 7.543e+00
*RC DFF_3/Q_reg:clocked_on 7.543e+00
*RC DFF_2/Q_reg:clocked_on 7.543e+00
*RC DFF_1/Q_reg:clocked_on 7.543e+00
*RC DFF_0/Q_reg:clocked_on 7.543e+00
*DRIVER DFF_12/Q_reg:clocked_on
*CELL \*\*SEQGEN\*\*
*C2_R1_C1 4.938e+00 7.637e-01 4.938e+00 
*LOADS
*RC DFF_18/Q_reg:clocked_on 7.543e+00
*RC DFF_17/Q_reg:clocked_on 7.543e+00
*RC DFF_16/Q_reg:clocked_on 7.543e+00
*RC DFF_15/Q_reg:clocked_on 7.543e+00
*RC DFF_14/Q_reg:clocked_on 7.543e+00
*RC DFF_13/Q_reg:clocked_on 7.543e+00
*RC DFF_11/Q_reg:clocked_on 7.543e+00
*RC DFF_10/Q_reg:clocked_on 7.543e+00
*RC DFF_9/Q_reg:clocked_on 7.543e+00
*RC DFF_8/Q_reg:clocked_on 7.543e+00
*RC DFF_7/Q_reg:clocked_on 7.543e+00
*RC DFF_6/Q_reg:clocked_on 7.543e+00
*RC DFF_5/Q_reg:clocked_on 7.543e+00
*RC DFF_4/Q_reg:clocked_on 7.543e+00
*RC DFF_3/Q_reg:clocked_on 7.543e+00
*RC DFF_2/Q_reg:clocked_on 7.543e+00
*RC DFF_1/Q_reg:clocked_on 7.543e+00
*RC DFF_0/Q_reg:clocked_on 7.543e+00
*DRIVER DFF_11/Q_reg:clocked_on
*CELL \*\*SEQGEN\*\*
*C2_R1_C1 4.938e+00 7.637e-01 4.938e+00 
*LOADS
*RC DFF_18/Q_reg:clocked_on 7.543e+00
*RC DFF_17/Q_reg:clocked_on 7.543e+00
*RC DFF_16/Q_reg:clocked_on 7.543e+00
*RC DFF_15/Q_reg:clocked_on 7.543e+00
*RC DFF_14/Q_reg:clocked_on 7.543e+00
*RC DFF_13/Q_reg:clocked_on 7.543e+00
*RC DFF_12/Q_reg:clocked_on 7.543e+00
*RC DFF_10/Q_reg:clocked_on 7.543e+00
*RC DFF_9/Q_reg:clocked_on 7.543e+00
*RC DFF_8/Q_reg:clocked_on 7.543e+00
*RC DFF_7/Q_reg:clocked_on 7.543e+00
*RC DFF_6/Q_reg:clocked_on 7.543e+00
*RC DFF_5/Q_reg:clocked_on 7.543e+00
*RC DFF_4/Q_reg:clocked_on 7.543e+00
*RC DFF_3/Q_reg:clocked_on 7.543e+00
*RC DFF_2/Q_reg:clocked_on 7.543e+00
*RC DFF_1/Q_reg:clocked_on 7.543e+00
*RC DFF_0/Q_reg:clocked_on 7.543e+00
*DRIVER DFF_10/Q_reg:clocked_on
*CELL \*\*SEQGEN\*\*
*C2_R1_C1 4.938e+00 7.637e-01 4.938e+00 
*LOADS
*RC DFF_18/Q_reg:clocked_on 7.543e+00
*RC DFF_17/Q_reg:clocked_on 7.543e+00
*RC DFF_16/Q_reg:clocked_on 7.543e+00
*RC DFF_15/Q_reg:clocked_on 7.543e+00
*RC DFF_14/Q_reg:clocked_on 7.543e+00
*RC DFF_13/Q_reg:clocked_on 7.543e+00
*RC DFF_12/Q_reg:clocked_on 7.543e+00
*RC DFF_11/Q_reg:clocked_on 7.543e+00
*RC DFF_9/Q_reg:clocked_on 7.543e+00
*RC DFF_8/Q_reg:clocked_on 7.543e+00
*RC DFF_7/Q_reg:clocked_on 7.543e+00
*RC DFF_6/Q_reg:clocked_on 7.543e+00
*RC DFF_5/Q_reg:clocked_on 7.543e+00
*RC DFF_4/Q_reg:clocked_on 7.543e+00
*RC DFF_3/Q_reg:clocked_on 7.543e+00
*RC DFF_2/Q_reg:clocked_on 7.543e+00
*RC DFF_1/Q_reg:clocked_on 7.543e+00
*RC DFF_0/Q_reg:clocked_on 7.543e+00
*DRIVER DFF_9/Q_reg:clocked_on
*CELL \*\*SEQGEN\*\*
*C2_R1_C1 4.938e+00 7.637e-01 4.938e+00 
*LOADS
*RC DFF_18/Q_reg:clocked_on 7.543e+00
*RC DFF_17/Q_reg:clocked_on 7.543e+00
*RC DFF_16/Q_reg:clocked_on 7.543e+00
*RC DFF_15/Q_reg:clocked_on 7.543e+00
*RC DFF_14/Q_reg:clocked_on 7.543e+00
*RC DFF_13/Q_reg:clocked_on 7.543e+00
*RC DFF_12/Q_reg:clocked_on 7.543e+00
*RC DFF_11/Q_reg:clocked_on 7.543e+00
*RC DFF_10/Q_reg:clocked_on 7.543e+00
*RC DFF_8/Q_reg:clocked_on 7.543e+00
*RC DFF_7/Q_reg:clocked_on 7.543e+00
*RC DFF_6/Q_reg:clocked_on 7.543e+00
*RC DFF_5/Q_reg:clocked_on 7.543e+00
*RC DFF_4/Q_reg:clocked_on 7.543e+00
*RC DFF_3/Q_reg:clocked_on 7.543e+00
*RC DFF_2/Q_reg:clocked_on 7.543e+00
*RC DFF_1/Q_reg:clocked_on 7.543e+00
*RC DFF_0/Q_reg:clocked_on 7.543e+00
*DRIVER DFF_8/Q_reg:clocked_on
*CELL \*\*SEQGEN\*\*
*C2_R1_C1 4.938e+00 7.637e-01 4.938e+00 
*LOADS
*RC DFF_18/Q_reg:clocked_on 7.543e+00
*RC DFF_17/Q_reg:clocked_on 7.543e+00
*RC DFF_16/Q_reg:clocked_on 7.543e+00
*RC DFF_15/Q_reg:clocked_on 7.543e+00
*RC DFF_14/Q_reg:clocked_on 7.543e+00
*RC DFF_13/Q_reg:clocked_on 7.543e+00
*RC DFF_12/Q_reg:clocked_on 7.543e+00
*RC DFF_11/Q_reg:clocked_on 7.543e+00
*RC DFF_10/Q_reg:clocked_on 7.543e+00
*RC DFF_9/Q_reg:clocked_on 7.543e+00
*RC DFF_7/Q_reg:clocked_on 7.543e+00
*RC DFF_6/Q_reg:clocked_on 7.543e+00
*RC DFF_5/Q_reg:clocked_on 7.543e+00
*RC DFF_4/Q_reg:clocked_on 7.543e+00
*RC DFF_3/Q_reg:clocked_on 7.543e+00
*RC DFF_2/Q_reg:clocked_on 7.543e+00
*RC DFF_1/Q_reg:clocked_on 7.543e+00
*RC DFF_0/Q_reg:clocked_on 7.543e+00
*DRIVER DFF_7/Q_reg:clocked_on
*CELL \*\*SEQGEN\*\*
*C2_R1_C1 4.938e+00 7.637e-01 4.938e+00 
*LOADS
*RC DFF_18/Q_reg:clocked_on 7.543e+00
*RC DFF_17/Q_reg:clocked_on 7.543e+00
*RC DFF_16/Q_reg:clocked_on 7.543e+00
*RC DFF_15/Q_reg:clocked_on 7.543e+00
*RC DFF_14/Q_reg:clocked_on 7.543e+00
*RC DFF_13/Q_reg:clocked_on 7.543e+00
*RC DFF_12/Q_reg:clocked_on 7.543e+00
*RC DFF_11/Q_reg:clocked_on 7.543e+00
*RC DFF_10/Q_reg:clocked_on 7.543e+00
*RC DFF_9/Q_reg:clocked_on 7.543e+00
*RC DFF_8/Q_reg:clocked_on 7.543e+00
*RC DFF_6/Q_reg:clocked_on 7.543e+00
*RC DFF_5/Q_reg:clocked_on 7.543e+00
*RC DFF_4/Q_reg:clocked_on 7.543e+00
*RC DFF_3/Q_reg:clocked_on 7.543e+00
*RC DFF_2/Q_reg:clocked_on 7.543e+00
*RC DFF_1/Q_reg:clocked_on 7.543e+00
*RC DFF_0/Q_reg:clocked_on 7.543e+00
*DRIVER DFF_6/Q_reg:clocked_on
*CELL \*\*SEQGEN\*\*
*C2_R1_C1 4.938e+00 7.637e-01 4.938e+00 
*LOADS
*RC DFF_18/Q_reg:clocked_on 7.543e+00
*RC DFF_17/Q_reg:clocked_on 7.543e+00
*RC DFF_16/Q_reg:clocked_on 7.543e+00
*RC DFF_15/Q_reg:clocked_on 7.543e+00
*RC DFF_14/Q_reg:clocked_on 7.543e+00
*RC DFF_13/Q_reg:clocked_on 7.543e+00
*RC DFF_12/Q_reg:clocked_on 7.543e+00
*RC DFF_11/Q_reg:clocked_on 7.543e+00
*RC DFF_10/Q_reg:clocked_on 7.543e+00
*RC DFF_9/Q_reg:clocked_on 7.543e+00
*RC DFF_8/Q_reg:clocked_on 7.543e+00
*RC DFF_7/Q_reg:clocked_on 7.543e+00
*RC DFF_5/Q_reg:clocked_on 7.543e+00
*RC DFF_4/Q_reg:clocked_on 7.543e+00
*RC DFF_3/Q_reg:clocked_on 7.543e+00
*RC DFF_2/Q_reg:clocked_on 7.543e+00
*RC DFF_1/Q_reg:clocked_on 7.543e+00
*RC DFF_0/Q_reg:clocked_on 7.543e+00
*DRIVER DFF_5/Q_reg:clocked_on
*CELL \*\*SEQGEN\*\*
*C2_R1_C1 4.938e+00 7.637e-01 4.938e+00 
*LOADS
*RC DFF_18/Q_reg:clocked_on 7.543e+00
*RC DFF_17/Q_reg:clocked_on 7.543e+00
*RC DFF_16/Q_reg:clocked_on 7.543e+00
*RC DFF_15/Q_reg:clocked_on 7.543e+00
*RC DFF_14/Q_reg:clocked_on 7.543e+00
*RC DFF_13/Q_reg:clocked_on 7.543e+00
*RC DFF_12/Q_reg:clocked_on 7.543e+00
*RC DFF_11/Q_reg:clocked_on 7.543e+00
*RC DFF_10/Q_reg:clocked_on 7.543e+00
*RC DFF_9/Q_reg:clocked_on 7.543e+00
*RC DFF_8/Q_reg:clocked_on 7.543e+00
*RC DFF_7/Q_reg:clocked_on 7.543e+00
*RC DFF_6/Q_reg:clocked_on 7.543e+00
*RC DFF_4/Q_reg:clocked_on 7.543e+00
*RC DFF_3/Q_reg:clocked_on 7.543e+00
*RC DFF_2/Q_reg:clocked_on 7.543e+00
*RC DFF_1/Q_reg:clocked_on 7.543e+00
*RC DFF_0/Q_reg:clocked_on 7.543e+00
*DRIVER DFF_4/Q_reg:clocked_on
*CELL \*\*SEQGEN\*\*
*C2_R1_C1 4.938e+00 7.637e-01 4.938e+00 
*LOADS
*RC DFF_18/Q_reg:clocked_on 7.543e+00
*RC DFF_17/Q_reg:clocked_on 7.543e+00
*RC DFF_16/Q_reg:clocked_on 7.543e+00
*RC DFF_15/Q_reg:clocked_on 7.543e+00
*RC DFF_14/Q_reg:clocked_on 7.543e+00
*RC DFF_13/Q_reg:clocked_on 7.543e+00
*RC DFF_12/Q_reg:clocked_on 7.543e+00
*RC DFF_11/Q_reg:clocked_on 7.543e+00
*RC DFF_10/Q_reg:clocked_on 7.543e+00
*RC DFF_9/Q_reg:clocked_on 7.543e+00
*RC DFF_8/Q_reg:clocked_on 7.543e+00
*RC DFF_7/Q_reg:clocked_on 7.543e+00
*RC DFF_6/Q_reg:clocked_on 7.543e+00
*RC DFF_5/Q_reg:clocked_on 7.543e+00
*RC DFF_3/Q_reg:clocked_on 7.543e+00
*RC DFF_2/Q_reg:clocked_on 7.543e+00
*RC DFF_1/Q_reg:clocked_on 7.543e+00
*RC DFF_0/Q_reg:clocked_on 7.543e+00
*DRIVER DFF_3/Q_reg:clocked_on
*CELL \*\*SEQGEN\*\*
*C2_R1_C1 4.938e+00 7.637e-01 4.938e+00 
*LOADS
*RC DFF_18/Q_reg:clocked_on 7.543e+00
*RC DFF_17/Q_reg:clocked_on 7.543e+00
*RC DFF_16/Q_reg:clocked_on 7.543e+00
*RC DFF_15/Q_reg:clocked_on 7.543e+00
*RC DFF_14/Q_reg:clocked_on 7.543e+00
*RC DFF_13/Q_reg:clocked_on 7.543e+00
*RC DFF_12/Q_reg:clocked_on 7.543e+00
*RC DFF_11/Q_reg:clocked_on 7.543e+00
*RC DFF_10/Q_reg:clocked_on 7.543e+00
*RC DFF_9/Q_reg:clocked_on 7.543e+00
*RC DFF_8/Q_reg:clocked_on 7.543e+00
*RC DFF_7/Q_reg:clocked_on 7.543e+00
*RC DFF_6/Q_reg:clocked_on 7.543e+00
*RC DFF_5/Q_reg:clocked_on 7.543e+00
*RC DFF_4/Q_reg:clocked_on 7.543e+00
*RC DFF_2/Q_reg:clocked_on 7.543e+00
*RC DFF_1/Q_reg:clocked_on 7.543e+00
*RC DFF_0/Q_reg:clocked_on 7.543e+00
*DRIVER DFF_2/Q_reg:clocked_on
*CELL \*\*SEQGEN\*\*
*C2_R1_C1 4.938e+00 7.637e-01 4.938e+00 
*LOADS
*RC DFF_18/Q_reg:clocked_on 7.543e+00
*RC DFF_17/Q_reg:clocked_on 7.543e+00
*RC DFF_16/Q_reg:clocked_on 7.543e+00
*RC DFF_15/Q_reg:clocked_on 7.543e+00
*RC DFF_14/Q_reg:clocked_on 7.543e+00
*RC DFF_13/Q_reg:clocked_on 7.543e+00
*RC DFF_12/Q_reg:clocked_on 7.543e+00
*RC DFF_11/Q_reg:clocked_on 7.543e+00
*RC DFF_10/Q_reg:clocked_on 7.543e+00
*RC DFF_9/Q_reg:clocked_on 7.543e+00
*RC DFF_8/Q_reg:clocked_on 7.543e+00
*RC DFF_7/Q_reg:clocked_on 7.543e+00
*RC DFF_6/Q_reg:clocked_on 7.543e+00
*RC DFF_5/Q_reg:clocked_on 7.543e+00
*RC DFF_4/Q_reg:clocked_on 7.543e+00
*RC DFF_3/Q_reg:clocked_on 7.543e+00
*RC DFF_1/Q_reg:clocked_on 7.543e+00
*RC DFF_0/Q_reg:clocked_on 7.543e+00
*DRIVER DFF_1/Q_reg:clocked_on
*CELL \*\*SEQGEN\*\*
*C2_R1_C1 4.938e+00 7.637e-01 4.938e+00 
*LOADS
*RC DFF_18/Q_reg:clocked_on 7.543e+00
*RC DFF_17/Q_reg:clocked_on 7.543e+00
*RC DFF_16/Q_reg:clocked_on 7.543e+00
*RC DFF_15/Q_reg:clocked_on 7.543e+00
*RC DFF_14/Q_reg:clocked_on 7.543e+00
*RC DFF_13/Q_reg:clocked_on 7.543e+00
*RC DFF_12/Q_reg:clocked_on 7.543e+00
*RC DFF_11/Q_reg:clocked_on 7.543e+00
*RC DFF_10/Q_reg:clocked_on 7.543e+00
*RC DFF_9/Q_reg:clocked_on 7.543e+00
*RC DFF_8/Q_reg:clocked_on 7.543e+00
*RC DFF_7/Q_reg:clocked_on 7.543e+00
*RC DFF_6/Q_reg:clocked_on 7.543e+00
*RC DFF_5/Q_reg:clocked_on 7.543e+00
*RC DFF_4/Q_reg:clocked_on 7.543e+00
*RC DFF_3/Q_reg:clocked_on 7.543e+00
*RC DFF_2/Q_reg:clocked_on 7.543e+00
*RC DFF_0/Q_reg:clocked_on 7.543e+00
*DRIVER CK
*CELL NULL
*C2_R1_C1 4.938e+00 7.637e-01 4.938e+00 
*LOADS
*RC DFF_18/Q_reg:clocked_on 7.543e+00
*RC DFF_17/Q_reg:clocked_on 7.543e+00
*RC DFF_16/Q_reg:clocked_on 7.543e+00
*RC DFF_15/Q_reg:clocked_on 7.543e+00
*RC DFF_14/Q_reg:clocked_on 7.543e+00
*RC DFF_13/Q_reg:clocked_on 7.543e+00
*RC DFF_12/Q_reg:clocked_on 7.543e+00
*RC DFF_11/Q_reg:clocked_on 7.543e+00
*RC DFF_10/Q_reg:clocked_on 7.543e+00
*RC DFF_9/Q_reg:clocked_on 7.543e+00
*RC DFF_8/Q_reg:clocked_on 7.543e+00
*RC DFF_7/Q_reg:clocked_on 7.543e+00
*RC DFF_6/Q_reg:clocked_on 7.543e+00
*RC DFF_5/Q_reg:clocked_on 7.543e+00
*RC DFF_4/Q_reg:clocked_on 7.543e+00
*RC DFF_3/Q_reg:clocked_on 7.543e+00
*RC DFF_2/Q_reg:clocked_on 7.543e+00
*RC DFF_1/Q_reg:clocked_on 7.543e+00
*RC DFF_0/Q_reg:clocked_on 7.543e+00
*DRIVER DFF_0/Q_reg:clocked_on
*CELL \*\*SEQGEN\*\*
*C2_R1_C1 4.938e+00 7.637e-01 4.938e+00 
*LOADS
*RC DFF_18/Q_reg:clocked_on 7.543e+00
*RC DFF_17/Q_reg:clocked_on 7.543e+00
*RC DFF_16/Q_reg:clocked_on 7.543e+00
*RC DFF_15/Q_reg:clocked_on 7.543e+00
*RC DFF_14/Q_reg:clocked_on 7.543e+00
*RC DFF_13/Q_reg:clocked_on 7.543e+00
*RC DFF_12/Q_reg:clocked_on 7.543e+00
*RC DFF_11/Q_reg:clocked_on 7.543e+00
*RC DFF_10/Q_reg:clocked_on 7.543e+00
*RC DFF_9/Q_reg:clocked_on 7.543e+00
*RC DFF_8/Q_reg:clocked_on 7.543e+00
*RC DFF_7/Q_reg:clocked_on 7.543e+00
*RC DFF_6/Q_reg:clocked_on 7.543e+00
*RC DFF_5/Q_reg:clocked_on 7.543e+00
*RC DFF_4/Q_reg:clocked_on 7.543e+00
*RC DFF_3/Q_reg:clocked_on 7.543e+00
*RC DFF_2/Q_reg:clocked_on 7.543e+00
*RC DFF_1/Q_reg:clocked_on 7.543e+00
*END

*R_NET G1 5.436e-01
*DRIVER G1
*CELL NULL
*C2_R1_C1 2.718e-01 4.203e-02 2.718e-01 
*LOADS
*RC AND3_14:A 2.285e-02
*RC AND2_30:A 2.285e-02
*END

*R_NET G10 1.565e+00
*DRIVER G10
*CELL NULL
*C2_R1_C1 7.824e-01 1.210e-01 7.824e-01 
*LOADS
*RC AND3_2:B 1.893e-01
*RC AND4_4:B 1.893e-01
*RC AND4_3:C 1.893e-01
*RC AND4_1:C 1.893e-01
*RC I_4:A 1.893e-01
*END

*R_NET G100BF 2.433e-01
*DRIVER I_8:Z
*CELL GTECH_NOT
*C2_R1_C1 1.216e-01 1.881e-02 1.216e-01 
*LOADS
*RC G100BF 4.575e-03
*END

*R_NET G101BF 2.433e-01
*DRIVER I_20:Z
*CELL GTECH_NOT
*C2_R1_C1 1.216e-01 1.881e-02 1.216e-01 
*LOADS
*RC G101BF 4.575e-03
*END

*R_NET G103BF 2.433e-01
*DRIVER I_53:Z
*CELL GTECH_NOT
*C2_R1_C1 1.216e-01 1.881e-02 1.216e-01 
*LOADS
*RC G103BF 4.575e-03
*END

*R_NET G104BF 2.433e-01
*DRIVER I_24:Z
*CELL GTECH_NOT
*C2_R1_C1 1.216e-01 1.881e-02 1.216e-01 
*LOADS
*RC G104BF 4.575e-03
*END

*R_NET G105BF 2.433e-01
*DRIVER I_40:Z
*CELL GTECH_NOT
*C2_R1_C1 1.216e-01 1.881e-02 1.216e-01 
*LOADS
*RC G105BF 4.575e-03
*END

*R_NET G106BF 2.433e-01
*DRIVER I_21:Z
*CELL GTECH_NOT
*C2_R1_C1 1.216e-01 1.881e-02 1.216e-01 
*LOADS
*RC G106BF 4.575e-03
*END

*R_NET G107 2.433e-01
*DRIVER AND2_14:Z
*CELL GTECH_AND2
*C2_R1_C1 1.216e-01 1.881e-02 1.216e-01 
*LOADS
*RC G107 4.575e-03
*END

*R_NET G11 5.436e-01
*DRIVER G11
*CELL NULL
*C2_R1_C1 2.718e-01 4.203e-02 2.718e-01 
*LOADS
*RC AND3_0:A 2.285e-02
*RC I_5:A 2.285e-02
*END

*R_NET G12 5.436e-01
*DRIVER G12
*CELL NULL
*C2_R1_C1 2.718e-01 4.203e-02 2.718e-01 
*LOADS
*RC AND3_0:B 2.285e-02
*RC I_6:A 2.285e-02
*END

*R_NET G13 5.436e-01
*DRIVER G13
*CELL NULL
*C2_R1_C1 2.718e-01 4.203e-02 2.718e-01 
*LOADS
*RC AND3_0:C 2.285e-02
*RC I_7:A 2.285e-02
*END

*R_NET G138 5.436e-01
*DRIVER I_45:Z
*CELL GTECH_NOT
*C2_R1_C1 2.718e-01 4.203e-02 2.718e-01 
*LOADS
*RC G138 2.285e-02
*RC DFF_6/Q_reg:next_state 2.285e-02
*DRIVER DFF_6/Q_reg:next_state
*CELL \*\*SEQGEN\*\*
*C2_R1_C1 2.718e-01 4.203e-02 2.718e-01 
*LOADS
*RC G138 2.285e-02
*END

*R_NET G14 2.433e-01
*DRIVER G14
*CELL NULL
*C2_R1_C1 1.216e-01 1.881e-02 1.216e-01 
*LOADS
*RC AND2_54:B 4.575e-03
*END

*R_NET G15 2.433e-01
*DRIVER G15
*CELL NULL
*C2_R1_C1 1.216e-01 1.881e-02 1.216e-01 
*LOADS
*RC AND2_28:B 4.575e-03
*END

*R_NET G16 2.433e-01
*DRIVER G16
*CELL NULL
*C2_R1_C1 1.216e-01 1.881e-02 1.216e-01 
*LOADS
*RC AND2_44:B 4.575e-03
*END

*R_NET G17 2.433e-01
*DRIVER G17
*CELL NULL
*C2_R1_C1 1.216e-01 1.881e-02 1.216e-01 
*LOADS
*RC AND2_26:B 4.575e-03
*END

*R_NET G18 2.433e-01
*DRIVER G18
*CELL NULL
*C2_R1_C1 1.216e-01 1.881e-02 1.216e-01 
*LOADS
*RC AND2_14:B 4.575e-03
*END

*R_NET G19 2.433e-01
*DRIVER G19
*CELL NULL
*C2_R1_C1 1.216e-01 1.881e-02 1.216e-01 
*LOADS
*RC AND2_15:B 4.575e-03
*END

*R_NET G2 2.433e-01
*DRIVER G2
*CELL NULL
*C2_R1_C1 1.216e-01 1.881e-02 1.216e-01 
*LOADS
*RC I_0:A 4.575e-03
*END

*R_NET G20 2.433e-01
*DRIVER G20
*CELL NULL
*C2_R1_C1 1.216e-01 1.881e-02 1.216e-01 
*LOADS
*RC AND2_16:B 4.575e-03
*END

*R_NET G21 2.433e-01
*DRIVER G21
*CELL NULL
*C2_R1_C1 1.216e-01 1.881e-02 1.216e-01 
*LOADS
*RC AND2_17:B 4.575e-03
*END

*R_NET G22 2.433e-01
*DRIVER G22
*CELL NULL
*C2_R1_C1 1.216e-01 1.881e-02 1.216e-01 
*LOADS
*RC AND2_48:B 4.575e-03
*END

*R_NET G23 2.433e-01
*DRIVER G23
*CELL NULL
*C2_R1_C1 1.216e-01 1.881e-02 1.216e-01 
*LOADS
*RC AND2_19:B 4.575e-03
*END

*R_NET G24 2.433e-01
*DRIVER G24
*CELL NULL
*C2_R1_C1 1.216e-01 1.881e-02 1.216e-01 
*LOADS
*RC AND2_38:B 4.575e-03
*END

*R_NET G25 2.433e-01
*DRIVER G25
*CELL NULL
*C2_R1_C1 1.216e-01 1.881e-02 1.216e-01 
*LOADS
*RC AND2_20:B 4.575e-03
*END

*R_NET G26 2.433e-01
*DRIVER G26
*CELL NULL
*C2_R1_C1 1.216e-01 1.881e-02 1.216e-01 
*LOADS
*RC AND2_59:B 4.575e-03
*END

*R_NET G27 2.433e-01
*DRIVER G27
*CELL NULL
*C2_R1_C1 1.216e-01 1.881e-02 1.216e-01 
*LOADS
*RC G91 4.575e-03
*END

*R_NET G28 2.433e-01
*DRIVER G28
*CELL NULL
*C2_R1_C1 1.216e-01 1.881e-02 1.216e-01 
*LOADS
*RC AND2_18:B 4.575e-03
*END

*R_NET G29 2.433e-01
*DRIVER G29
*CELL NULL
*C2_R1_C1 1.216e-01 1.881e-02 1.216e-01 
*LOADS
*RC G94 4.575e-03
*END

*R_NET G3 2.433e-01
*DRIVER G3
*CELL NULL
*C2_R1_C1 1.216e-01 1.881e-02 1.216e-01 
*LOADS
*RC I_1:A 4.575e-03
*END

*R_NET G30 2.433e-01
*DRIVER G30
*CELL NULL
*C2_R1_C1 1.216e-01 1.881e-02 1.216e-01 
*LOADS
*RC AND2_51:B 4.575e-03
*END

*R_NET G31 2.433e-01
*DRIVER G31
*CELL NULL
*C2_R1_C1 1.216e-01 1.881e-02 1.216e-01 
*LOADS
*RC AND2_13:B 4.575e-03
*END

*R_NET G32 2.433e-01
*DRIVER G32
*CELL NULL
*C2_R1_C1 1.216e-01 1.881e-02 1.216e-01 
*LOADS
*RC AND2_27:B 4.575e-03
*END

*R_NET G33 2.433e-01
*DRIVER G33
*CELL NULL
*C2_R1_C1 1.216e-01 1.881e-02 1.216e-01 
*LOADS
*RC AND2_12:B 4.575e-03
*END

*R_NET G34 2.433e-01
*DRIVER G34
*CELL NULL
*C2_R1_C1 1.216e-01 1.881e-02 1.216e-01 
*LOADS
*RC AND2_41:B 4.575e-03
*END

*R_NET G35 2.433e-01
*DRIVER G35
*CELL NULL
*C2_R1_C1 1.216e-01 1.881e-02 1.216e-01 
*LOADS
*RC AND2_11:B 4.575e-03
*END

*R_NET G36 2.433e-01
*DRIVER G36
*CELL NULL
*C2_R1_C1 1.216e-01 1.881e-02 1.216e-01 
*LOADS
*RC AND2_25:B 4.575e-03
*END

*R_NET G4 2.433e-01
*DRIVER G4
*CELL NULL
*C2_R1_C1 1.216e-01 1.881e-02 1.216e-01 
*LOADS
*RC I_2:A 4.575e-03
*END

*R_NET G5 5.436e-01
*DRIVER G5
*CELL NULL
*C2_R1_C1 2.718e-01 4.203e-02 2.718e-01 
*LOADS
*RC AND4_10:A 2.285e-02
*RC AND2_34:B 2.285e-02
*END

*R_NET G6 5.436e-01
*DRIVER G6
*CELL NULL
*C2_R1_C1 2.718e-01 4.203e-02 2.718e-01 
*LOADS
*RC AND4_11:A 2.285e-02
*RC AND2_43:B 2.285e-02
*END

*R_NET G8 5.436e-01
*DRIVER G8
*CELL NULL
*C2_R1_C1 2.718e-01 4.203e-02 2.718e-01 
*LOADS
*RC AND4_8:A 2.285e-02
*RC AND2_53:B 2.285e-02
*END

*R_NET G83 2.433e-01
*DRIVER AND2_15:Z
*CELL GTECH_AND2
*C2_R1_C1 1.216e-01 1.881e-02 1.216e-01 
*LOADS
*RC G83 4.575e-03
*END

*R_NET G84 2.433e-01
*DRIVER AND2_16:Z
*CELL GTECH_AND2
*C2_R1_C1 1.216e-01 1.881e-02 1.216e-01 
*LOADS
*RC G84 4.575e-03
*END

*R_NET G85 2.433e-01
*DRIVER AND2_17:Z
*CELL GTECH_AND2
*C2_R1_C1 1.216e-01 1.881e-02 1.216e-01 
*LOADS
*RC G85 4.575e-03
*END

*R_NET G86BF 2.433e-01
*DRIVER I_48:Z
*CELL GTECH_NOT
*C2_R1_C1 1.216e-01 1.881e-02 1.216e-01 
*LOADS
*RC G86BF 4.575e-03
*END

*R_NET G87BF 2.433e-01
*DRIVER I_16:Z
*CELL GTECH_NOT
*C2_R1_C1 1.216e-01 1.881e-02 1.216e-01 
*LOADS
*RC G87BF 4.575e-03
*END

*R_NET G88BF 2.433e-01
*DRIVER I_34:Z
*CELL GTECH_NOT
*C2_R1_C1 1.216e-01 1.881e-02 1.216e-01 
*LOADS
*RC G88BF 4.575e-03
*END

*R_NET G89BF 2.433e-01
*DRIVER I_17:Z
*CELL GTECH_NOT
*C2_R1_C1 1.216e-01 1.881e-02 1.216e-01 
*LOADS
*RC G89BF 4.575e-03
*END

*R_NET G9 1.565e+00
*DRIVER G9
*CELL NULL
*C2_R1_C1 7.824e-01 1.210e-01 7.824e-01 
*LOADS
*RC AND3_8:A 1.893e-01
*RC AND4_4:A 1.893e-01
*RC AND4_3:B 1.893e-01
*RC AND4_2:B 1.893e-01
*RC I_3:A 1.893e-01
*END

*R_NET G90 2.433e-01
*DRIVER AND2_59:Z
*CELL GTECH_AND2
*C2_R1_C1 1.216e-01 1.881e-02 1.216e-01 
*LOADS
*RC G90 4.575e-03
*END

*R_NET G92 2.433e-01
*DRIVER AND2_18:Z
*CELL GTECH_AND2
*C2_R1_C1 1.216e-01 1.881e-02 1.216e-01 
*LOADS
*RC G92 4.575e-03
*END

*R_NET G95BF 2.433e-01
*DRIVER I_51:Z
*CELL GTECH_NOT
*C2_R1_C1 1.216e-01 1.881e-02 1.216e-01 
*LOADS
*RC G95BF 4.575e-03
*END

*R_NET G96BF 2.433e-01
*DRIVER I_10:Z
*CELL GTECH_NOT
*C2_R1_C1 1.216e-01 1.881e-02 1.216e-01 
*LOADS
*RC G96BF 4.575e-03
*END

*R_NET G97BF 2.433e-01
*DRIVER I_23:Z
*CELL GTECH_NOT
*C2_R1_C1 1.216e-01 1.881e-02 1.216e-01 
*LOADS
*RC G97BF 4.575e-03
*END

*R_NET G98BF 2.433e-01
*DRIVER I_9:Z
*CELL GTECH_NOT
*C2_R1_C1 1.216e-01 1.881e-02 1.216e-01 
*LOADS
*RC G98BF 4.575e-03
*END

*R_NET G99BF 2.433e-01
*DRIVER I_37:Z
*CELL GTECH_NOT
*C2_R1_C1 1.216e-01 1.881e-02 1.216e-01 
*LOADS
*RC G99BF 4.575e-03
*END

*R_NET G64 2.433e-01
*DRIVER DFF_0/Q_reg:Q
*CELL \*\*SEQGEN\*\*
*C2_R1_C1 1.216e-01 1.881e-02 1.216e-01 
*LOADS
*RC AND3_4:B 4.575e-03
*END

*R_NET G380 2.433e-01
*DRIVER I_52:Z
*CELL GTECH_NOT
*C2_R1_C1 1.216e-01 1.881e-02 1.216e-01 
*LOADS
*RC DFF_0/Q_reg:next_state 4.575e-03
*DRIVER DFF_0/Q_reg:next_state
*CELL \*\*SEQGEN\*\*
*C2_R1_C1 1.216e-01 1.881e-02 1.216e-01 
*LOADS
*END

*R_NET G65 2.433e-01
*DRIVER DFF_1/Q_reg:Q
*CELL \*\*SEQGEN\*\*
*C2_R1_C1 1.216e-01 1.881e-02 1.216e-01 
*LOADS
*RC OR3_0:C 4.575e-03
*END

*R_NET G262 2.433e-01
*DRIVER AND4_5:Z
*CELL GTECH_AND4
*C2_R1_C1 1.216e-01 1.881e-02 1.216e-01 
*LOADS
*RC DFF_1/Q_reg:next_state 4.575e-03
*DRIVER DFF_1/Q_reg:next_state
*CELL \*\*SEQGEN\*\*
*C2_R1_C1 1.216e-01 1.881e-02 1.216e-01 
*LOADS
*END

*R_NET G66 2.433e-01
*DRIVER DFF_2/Q_reg:Q
*CELL \*\*SEQGEN\*\*
*C2_R1_C1 1.216e-01 1.881e-02 1.216e-01 
*LOADS
*RC AND3_1:B 4.575e-03
*END

*R_NET G394 2.433e-01
*DRIVER I_38:Z
*CELL GTECH_NOT
*C2_R1_C1 1.216e-01 1.881e-02 1.216e-01 
*LOADS
*RC DFF_2/Q_reg:next_state 4.575e-03
*DRIVER DFF_2/Q_reg:next_state
*CELL \*\*SEQGEN\*\*
*C2_R1_C1 1.216e-01 1.881e-02 1.216e-01 
*LOADS
*END

*R_NET G67 2.433e-01
*DRIVER DFF_3/Q_reg:Q
*CELL \*\*SEQGEN\*\*
*C2_R1_C1 1.216e-01 1.881e-02 1.216e-01 
*LOADS
*RC OR3_1:B 4.575e-03
*END

*R_NET G250 2.433e-01
*DRIVER AND2_31:Z
*CELL GTECH_AND2
*C2_R1_C1 1.216e-01 1.881e-02 1.216e-01 
*LOADS
*RC DFF_3/Q_reg:next_state 4.575e-03
*DRIVER DFF_3/Q_reg:next_state
*CELL \*\*SEQGEN\*\*
*C2_R1_C1 1.216e-01 1.881e-02 1.216e-01 
*LOADS
*END

*R_NET G68 2.433e-01
*DRIVER DFF_4/Q_reg:Q
*CELL \*\*SEQGEN\*\*
*C2_R1_C1 1.216e-01 1.881e-02 1.216e-01 
*LOADS
*RC AND2_21:B 4.575e-03
*END

*R_NET G122 2.433e-01
*DRIVER I_30:Z
*CELL GTECH_NOT
*C2_R1_C1 1.216e-01 1.881e-02 1.216e-01 
*LOADS
*RC DFF_4/Q_reg:next_state 4.575e-03
*DRIVER DFF_4/Q_reg:next_state
*CELL \*\*SEQGEN\*\*
*C2_R1_C1 1.216e-01 1.881e-02 1.216e-01 
*LOADS
*END

*R_NET G69 2.433e-01
*DRIVER DFF_5/Q_reg:Q
*CELL \*\*SEQGEN\*\*
*C2_R1_C1 1.216e-01 1.881e-02 1.216e-01 
*LOADS
*RC AND2_0:B 4.575e-03
*END

*R_NET G133 2.433e-01
*DRIVER I_46:Z
*CELL GTECH_NOT
*C2_R1_C1 1.216e-01 1.881e-02 1.216e-01 
*LOADS
*RC DFF_5/Q_reg:next_state 4.575e-03
*DRIVER DFF_5/Q_reg:next_state
*CELL \*\*SEQGEN\*\*
*C2_R1_C1 1.216e-01 1.881e-02 1.216e-01 
*LOADS
*END

*R_NET G70 2.433e-01
*DRIVER DFF_6/Q_reg:Q
*CELL \*\*SEQGEN\*\*
*C2_R1_C1 1.216e-01 1.881e-02 1.216e-01 
*LOADS
*RC AND2_39:B 4.575e-03
*END

*R_NET G71 2.433e-01
*DRIVER DFF_7/Q_reg:Q
*CELL \*\*SEQGEN\*\*
*C2_R1_C1 1.216e-01 1.881e-02 1.216e-01 
*LOADS
*RC AND2_1:B 4.575e-03
*END

*R_NET G139 2.433e-01
*DRIVER I_32:Z
*CELL GTECH_NOT
*C2_R1_C1 1.216e-01 1.881e-02 1.216e-01 
*LOADS
*RC DFF_7/Q_reg:next_state 4.575e-03
*DRIVER DFF_7/Q_reg:next_state
*CELL \*\*SEQGEN\*\*
*C2_R1_C1 1.216e-01 1.881e-02 1.216e-01 
*LOADS
*END

*R_NET G72 2.433e-01
*DRIVER DFF_8/Q_reg:Q
*CELL \*\*SEQGEN\*\*
*C2_R1_C1 1.216e-01 1.881e-02 1.216e-01 
*LOADS
*RC AND2_23:B 4.575e-03
*END

*R_NET G140 2.433e-01
*DRIVER I_31:Z
*CELL GTECH_NOT
*C2_R1_C1 1.216e-01 1.881e-02 1.216e-01 
*LOADS
*RC DFF_8/Q_reg:next_state 4.575e-03
*DRIVER DFF_8/Q_reg:next_state
*CELL \*\*SEQGEN\*\*
*C2_R1_C1 1.216e-01 1.881e-02 1.216e-01 
*LOADS
*END

*R_NET G73 2.433e-01
*DRIVER DFF_9/Q_reg:Q
*CELL \*\*SEQGEN\*\*
*C2_R1_C1 1.216e-01 1.881e-02 1.216e-01 
*LOADS
*RC AND2_2:B 4.575e-03
*END

*R_NET G141 2.433e-01
*DRIVER I_66:Z
*CELL GTECH_NOT
*C2_R1_C1 1.216e-01 1.881e-02 1.216e-01 
*LOADS